AeroDyn airfoil file.
 
Compatible with AeroDyn v13.0.
Generated by airfoilprep.py
1         		Number of airfoil tables in this file   
0.244912  	Reynolds number in millions.            
0.000000  	Control setting                         
5.934178  	Stall angle (deg)                       
-0.118342 	Angle of attack for zero Cn for linear Cn curve (deg)
6.931203  	Cn slope for zero lift for linear Cn curve (1/rad)
0.732187  	Cn at stall value for positive angle of attack for linear Cn curve
-0.492891 	Cn at stall value for negative angle of attack for linear Cn curve
-3.141593 	Angle of attack for minimum CD (deg)    
0.013800  	Minimum CD value                        
-180.000000	0.000000  	0.013800  	0.000000  
-179.071429	0.055400  	0.013800  	0.037143  
-178.142857	0.110800  	0.013800  	0.074286  
-177.214286	0.166200  	0.013800  	0.111429  
-176.285714	0.221600  	0.013800  	0.148571  
-175.357143	0.277000  	0.013800  	0.185714  
-174.428571	0.332400  	0.013800  	0.222857  
-173.500000	0.387800  	0.013800  	0.260000  
-172.571429	0.443200  	0.013800  	0.297143  
-171.642857	0.498600  	0.013800  	0.334286  
-170.714286	0.554000  	0.016625  	0.371429  
-169.785714	0.609400  	0.023705  	0.397489  
-168.857143	0.664800  	0.031430  	0.386606  
-167.928571	0.720200  	0.039791  	0.375724  
-167.000000	0.775600  	0.048780  	0.364842  
-161.500000	0.660732  	0.114338  	0.300385  
-156.000000	0.618233  	0.199123  	0.267722  
-150.500000	0.600013  	0.300037  	0.246982  
-145.000000	0.587261  	0.413392  	0.249804  
-139.500000	0.570937  	0.535048  	0.255672  
-134.000000	0.546298  	0.660562  	0.268425  
-128.500000	0.510935  	0.785355  	0.281461  
-123.000000	0.463946  	0.904874  	0.295252  
-117.500000	0.405528  	1.014767  	0.307650  
-112.000000	0.336731  	1.111034  	0.318378  
-106.500000	0.259295  	1.190179  	0.325270  
-101.000000	0.175509  	1.249340  	0.329969  
-95.500000	0.088078  	1.286385  	0.328203  
-90.000000	0.000000  	1.300000  	0.325000  
-84.500000	-0.088078 	1.286385  	0.312092  
-79.000000	-0.175509 	1.249340  	0.297981  
-73.500000	-0.259295 	1.190179  	0.278453  
-68.000000	-0.336731 	1.111034  	0.257426  
-62.500000	-0.405528 	1.014767  	0.233775  
-57.000000	-0.463946 	0.904874  	0.209332  
-51.500000	-0.510935 	0.785355  	0.184229  
-46.000000	-0.546298 	0.660562  	0.159687  
-40.500000	-0.570937 	0.535048  	0.135356  
-35.000000	-0.587261 	0.413392  	0.112472  
-29.500000	-0.600013 	0.300037  	0.089496  
-24.000000	-0.618233 	0.199123  	0.064139  
-18.500000	-0.660732 	0.114338  	0.026750  
-13.000000	-0.775600 	0.048780  	-0.042727 
-12.285714	-0.748636 	0.045413  	-0.051750 
-11.571429	-0.721671 	0.042046  	-0.060773 
-10.857143	-0.694707 	0.038679  	-0.069796 
-10.142857	-0.667743 	0.035311  	-0.078819 
-9.428571 	-0.640779 	0.031944  	-0.073364 
-8.714286 	-0.613814 	0.028577  	-0.064290 
-8.000000 	-0.586850 	0.025210  	-0.055217 
-7.285714 	-0.559886 	0.021843  	-0.046143 
-6.571429 	-0.532921 	0.018476  	-0.037069 
-5.857143 	-0.505957 	0.015109  	-0.027995 
-5.142857 	-0.478993 	0.013800  	-0.018921 
-4.428571 	-0.452029 	0.013800  	-0.009848 
-3.000000 	-0.398100 	0.013800  	0.008300  
-2.000000 	-0.243000 	0.013800  	-0.000600 
-1.000000 	-0.107100 	0.013800  	-0.003900 
0.000000  	0.000000  	0.013800  	0.000000  
1.000000  	0.107100  	0.013800  	0.003900  
2.000000  	0.242800  	0.013800  	0.000700  
3.000000  	0.397700  	0.013800  	-0.008200 
4.000000  	0.534500  	0.013800  	-0.014800 
5.000000  	0.615500  	0.013800  	-0.010400 
6.000000  	0.689300  	0.013800  	-0.004400 
7.000000  	0.759200  	0.013800  	0.002600  
8.000000  	0.828000  	0.013800  	0.009600  
10.000000 	0.968600  	0.016380  	0.020900  
11.000000 	1.024300  	0.021710  	0.027400  
13.000000 	1.108000  	0.048780  	0.037600  
18.500000 	0.943903  	0.114338  	-0.042135 
24.000000 	0.883190  	0.199123  	-0.087162 
29.500000 	0.857162  	0.300037  	-0.119173 
35.000000 	0.838944  	0.413392  	-0.143750 
40.500000 	0.815625  	0.535048  	-0.167413 
46.000000 	0.780426  	0.660562  	-0.189366 
51.500000 	0.729907  	0.785355  	-0.210931 
57.000000 	0.662780  	0.904874  	-0.231462 
62.500000 	0.579325  	1.014767  	-0.251059 
68.000000 	0.481044  	1.111034  	-0.269535 
73.500000 	0.370422  	1.190179  	-0.286092 
79.000000 	0.250727  	1.249340  	-0.301552 
84.500000 	0.125826  	1.286385  	-0.313650 
90.000000 	0.000000  	1.300000  	-0.325000 
95.500000 	-0.088078 	1.286385  	-0.328203 
101.000000	-0.175509 	1.249340  	-0.329969 
106.500000	-0.259295 	1.190179  	-0.325270 
112.000000	-0.336731 	1.111034  	-0.318378 
117.500000	-0.405528 	1.014767  	-0.307650 
123.000000	-0.463946 	0.904874  	-0.295252 
128.500000	-0.510935 	0.785355  	-0.281461 
134.000000	-0.546298 	0.660562  	-0.268425 
139.500000	-0.570937 	0.535048  	-0.255672 
145.000000	-0.587261 	0.413392  	-0.249804 
150.500000	-0.600013 	0.300037  	-0.246982 
156.000000	-0.618233 	0.199123  	-0.267722 
161.500000	-0.660732 	0.114338  	-0.315385 
167.000000	-0.775600 	0.048780  	-0.434842 
167.928571	-0.720200 	0.039791  	-0.455010 
168.857143	-0.664800 	0.031430  	-0.475178 
169.785714	-0.609400 	0.023705  	-0.495346 
170.714286	-0.554000 	0.016625  	-0.464286 
171.642857	-0.498600 	0.013800  	-0.417857 
172.571429	-0.443200 	0.013800  	-0.371429 
173.500000	-0.387800 	0.013800  	-0.325000 
174.428571	-0.332400 	0.013800  	-0.278571 
175.357143	-0.277000 	0.013800  	-0.232143 
176.285714	-0.221600 	0.013800  	-0.185714 
177.214286	-0.166200 	0.013800  	-0.139286 
178.142857	-0.110800 	0.013800  	-0.092857 
179.071429	-0.055400 	0.013800  	-0.046429 
180.000000	0.000000  	0.013800  	0.000000  
