AeroDyn airfoil file.
 
Compatible with AeroDyn v13.0.
Generated by airfoilprep.py
1         		Number of airfoil tables in this file   
0.100000  	Reynolds number in millions.            
0.000000  	Control setting                         
5.096890  	Stall angle (deg)                       
-2.720213 	Angle of attack for zero Cn for linear Cn curve (deg)
6.428810  	Cn slope for zero lift for linear Cn curve (1/rad)
0.877109  	Cn at stall value for positive angle of attack for linear Cn curve
-0.597055 	Cn at stall value for negative angle of attack for linear Cn curve
-0.069813 	Angle of attack for minimum CD (deg)    
0.022870  	Minimum CD value                        
-180.000000	0.000000  	0.103977  	0.000000  
-179.357143	0.029665  	0.104134  	0.025714  
-178.714286	0.059330  	0.104605  	0.051429  
-178.071429	0.088995  	0.105390  	0.077143  
-177.428571	0.118660  	0.106489  	0.102857  
-176.785714	0.148325  	0.107900  	0.128571  
-176.142857	0.177990  	0.109624  	0.154286  
-175.500000	0.207655  	0.111659  	0.180000  
-174.857143	0.237320  	0.114004  	0.205714  
-174.214286	0.266985  	0.116658  	0.231429  
-173.571429	0.296650  	0.119620  	0.257143  
-172.928571	0.326315  	0.122888  	0.282857  
-172.285714	0.355980  	0.126460  	0.308571  
-171.642857	0.385645  	0.130335  	0.334286  
-171.000000	0.415310  	0.134510  	0.360000  
-165.214286	0.385917  	0.185202  	0.299324  
-159.428571	0.409253  	0.257850  	0.191136  
-153.642857	0.441675  	0.349404  	0.206365  
-147.857143	0.469303  	0.456015  	0.223746  
-142.071429	0.485797  	0.573193  	0.244786  
-136.285714	0.487844  	0.695992  	0.266353  
-130.500000	0.473833  	0.819210  	0.288213  
-124.714286	0.443367  	0.937607  	0.307492  
-118.928571	0.397036  	1.046116  	0.325516  
-113.142857	0.336272  	1.140056  	0.339098  
-107.357143	0.263223  	1.215320  	0.349360  
-101.571429	0.180636  	1.268550  	0.355673  
-95.785714	0.091718  	1.297271  	0.355796  
-90.000000	0.000000  	1.300000  	0.353611  
-84.214286	-0.091718 	1.297271  	0.346835  
-78.428571	-0.180636 	1.268550  	0.337882  
-72.642857	-0.263223 	1.215320  	0.323085  
-66.857143	-0.336272 	1.140056  	0.304879  
-61.071429	-0.397036 	1.046116  	0.283807  
-55.285714	-0.443367 	0.937607  	0.259327  
-49.500000	-0.473833 	0.819210  	0.233922  
-43.714286	-0.487844 	0.695992  	0.206931  
-37.928571	-0.485797 	0.573193  	0.180196  
-32.142857	-0.469303 	0.456015  	0.153917  
-26.357143	-0.441675 	0.349404  	0.128693  
-20.571429	-0.409253 	0.257850  	0.104090  
-14.785714	-0.385917 	0.185202  	0.076105  
-9.000000 	-0.415310 	0.134510  	0.008775  
-8.928571 	-0.425066 	0.127737  	0.005641  
-8.857143 	-0.434823 	0.120964  	0.002507  
-8.785714 	-0.444579 	0.114191  	-0.000627 
-8.714286 	-0.454336 	0.107419  	-0.003760 
-8.642857 	-0.464092 	0.100646  	-0.006894 
-8.571429 	-0.473849 	0.093873  	-0.010028 
-8.500000 	-0.483605 	0.087100  	-0.013162 
-8.428571 	-0.493361 	0.080327  	-0.016296 
-8.357143 	-0.503118 	0.073554  	-0.019430 
-8.285714 	-0.512874 	0.066781  	-0.022564 
-8.214286 	-0.522631 	0.060009  	-0.025698 
-8.142857 	-0.532387 	0.053236  	-0.028832 
-8.000000 	-0.551900 	0.039690  	-0.035100 
-7.000000 	-0.470300 	0.029950  	-0.033500 
-6.000000 	-0.362600 	0.025810  	-0.032500 
-5.000000 	-0.250600 	0.023440  	-0.032400 
-4.000000 	-0.137000 	0.022870  	-0.032700 
-3.000000 	-0.029100 	0.023940  	-0.029800 
-2.000000 	0.076100  	0.024830  	-0.025500 
-1.000000 	0.166200  	0.027110  	-0.018000 
0.000000  	0.269500  	0.027230  	-0.013500 
1.000000  	0.454100  	0.029620  	-0.027800 
2.000000  	0.577300  	0.030930  	-0.035000 
3.000000  	0.645400  	0.034470  	-0.031100 
4.000000  	0.734500  	0.038660  	-0.032600 
5.000000  	0.852900  	0.038110  	-0.032500 
6.000000  	0.580200  	0.085960  	-0.038100 
7.000000  	0.640400  	0.093200  	-0.038000 
8.000000  	0.607300  	0.113300  	-0.042900 
9.000000  	0.593300  	0.134510  	-0.049300 
14.785714 	0.551310  	0.185202  	-0.093405 
20.571429 	0.584647  	0.257850  	-0.130060 
26.357143 	0.630964  	0.349404  	-0.158672 
32.142857 	0.670433  	0.456015  	-0.186617 
37.928571 	0.693996  	0.573193  	-0.213428 
43.714286 	0.696920  	0.695992  	-0.238610 
49.500000 	0.676904  	0.819210  	-0.262883 
55.285714 	0.633381  	0.937607  	-0.283448 
61.071429 	0.567195  	1.046116  	-0.302782 
66.857143 	0.480388  	1.140056  	-0.318251 
72.642857 	0.376033  	1.215320  	-0.331434 
78.428571 	0.258051  	1.268550  	-0.341899 
84.214286 	0.131026  	1.297271  	-0.348479 
90.000000 	0.000000  	1.300000  	-0.353611 
95.785714 	-0.091718 	1.297271  	-0.355796 
101.571429	-0.180636 	1.268550  	-0.355673 
107.357143	-0.263223 	1.215320  	-0.349360 
113.142857	-0.336272 	1.140056  	-0.339098 
118.928571	-0.397036 	1.046116  	-0.325516 
124.714286	-0.443367 	0.937607  	-0.307492 
130.500000	-0.473833 	0.819210  	-0.288213 
136.285714	-0.487844 	0.695992  	-0.266353 
142.071429	-0.485797 	0.573193  	-0.244786 
147.857143	-0.469303 	0.456015  	-0.223746 
153.642857	-0.441675 	0.349404  	-0.206365 
159.428571	-0.409253 	0.257850  	-0.191136 
165.214286	-0.385917 	0.185202  	-0.351467 
171.000000	-0.415310 	0.134510  	-0.450000 
171.642857	-0.385645 	0.130335  	-0.417857 
172.285714	-0.355980 	0.126460  	-0.385714 
172.928571	-0.326315 	0.122888  	-0.353571 
173.571429	-0.296650 	0.119620  	-0.321429 
174.214286	-0.266985 	0.116658  	-0.289286 
174.857143	-0.237320 	0.114004  	-0.257143 
175.500000	-0.207655 	0.111659  	-0.225000 
176.142857	-0.177990 	0.109624  	-0.192857 
176.785714	-0.148325 	0.107900  	-0.160714 
177.428571	-0.118660 	0.106489  	-0.128571 
178.071429	-0.088995 	0.105390  	-0.096429 
178.714286	-0.059330 	0.104605  	-0.064286 
179.357143	-0.029665 	0.104134  	-0.032143 
180.000000	0.000000  	0.103977  	0.000000  
