AeroDyn airfoil file.
 
Compatible with AeroDyn v13.0.
Generated by airfoilprep.py
1         		Number of airfoil tables in this file   
0.100000  	Reynolds number in millions.            
0.000000  	Control setting                         
5.034613  	Stall angle (deg)                       
-2.794631 	Angle of attack for zero Cn for linear Cn curve (deg)
7.689740  	Cn slope for zero lift for linear Cn curve (1/rad)
1.050773  	Cn at stall value for positive angle of attack for linear Cn curve
-0.509655 	Cn at stall value for negative angle of attack for linear Cn curve
-3.141593 	Angle of attack for minimum CD (deg)    
0.013800  	Minimum CD value                        
-180.000000	0.000000  	0.013800  	0.000000  
-179.285714	0.068490  	0.013800  	0.028571  
-178.571429	0.136980  	0.013800  	0.057143  
-177.857143	0.205470  	0.013800  	0.085714  
-177.142857	0.273960  	0.013800  	0.114286  
-176.428571	0.342450  	0.013800  	0.142857  
-175.714286	0.410940  	0.013800  	0.171429  
-175.000000	0.479430  	0.013800  	0.200000  
-174.285714	0.547920  	0.013800  	0.228571  
-173.571429	0.616410  	0.013800  	0.257143  
-172.857143	0.684900  	0.013800  	0.285714  
-172.142857	0.753390  	0.013800  	0.314286  
-171.428571	0.821880  	0.016759  	0.342857  
-170.714286	0.890370  	0.021752  	0.371429  
-170.000000	0.958860  	0.027130  	0.400000  
-164.285714	0.729307  	0.083563  	0.370833  
-158.571429	0.650590  	0.162108  	0.344667  
-152.857143	0.619065  	0.259660  	0.327505  
-147.142857	0.601787  	0.372368  	0.322300  
-141.428571	0.584589  	0.495779  	0.329051  
-135.714286	0.560413  	0.625021  	0.341718  
-130.000000	0.525658  	0.754993  	0.356358  
-124.285714	0.478783  	0.880568  	0.371895  
-118.571429	0.419668  	0.996794  	0.386715  
-112.857143	0.349268  	1.099093  	0.399381  
-107.142857	0.269387  	1.183443  	0.409121  
-101.428571	0.182499  	1.246531  	0.415937  
-95.714286	0.091589  	1.285892  	0.416848  
-90.000000	0.000000  	1.300000  	0.415792  
-84.285714	-0.091589 	1.285892  	0.404745  
-78.571429	-0.182499 	1.246531  	0.391963  
-72.857143	-0.269387 	1.183443  	0.373981  
-67.142857	-0.349268 	1.099093  	0.353762  
-61.428571	-0.419668 	0.996794  	0.331305  
-55.714286	-0.478783 	0.880568  	0.307545  
-50.000000	-0.525658 	0.754993  	0.283350  
-44.285714	-0.560413 	0.625021  	0.259817  
-38.571429	-0.584589 	0.495779  	0.236998  
-32.857143	-0.601787 	0.372368  	0.216324  
-27.142857	-0.619065 	0.259660  	0.196252  
-21.428571	-0.650590 	0.162108  	0.176782  
-15.714286	-0.729307 	0.083563  	0.129309  
-10.000000	-0.958860 	0.027130  	0.072501  
-9.857143 	-0.920770 	0.032454  	0.064958  
-9.714286 	-0.882680 	0.037777  	0.057415  
-9.571429 	-0.844590 	0.043101  	0.049872  
-9.428571 	-0.806500 	0.048424  	0.042329  
-9.285714 	-0.768410 	0.053748  	0.034786  
-9.142857 	-0.730320 	0.059071  	0.027243  
-9.000000 	-0.692230 	0.064395  	0.019700  
-8.857143 	-0.654140 	0.069719  	0.012157  
-8.714286 	-0.616050 	0.075042  	0.004614  
-8.571429 	-0.577960 	0.080366  	-0.002928 
-8.428571 	-0.539870 	0.085689  	-0.010471 
-8.285714 	-0.501780 	0.091013  	-0.018014 
-8.000000 	-0.425600 	0.101660  	-0.033100 
-6.000000 	-0.463900 	0.080450  	-0.021700 
-5.000000 	-0.336700 	0.060340  	-0.054400 
-3.000000 	-0.010100 	0.025270  	-0.090500 
1.000000  	0.563100  	0.017650  	-0.107100 
2.000000  	0.678600  	0.017840  	-0.106200 
3.000000  	0.785500  	0.018710  	-0.104500 
4.000000  	0.892900  	0.019750  	-0.102900 
5.000000  	0.999400  	0.020980  	-0.101200 
6.000000  	1.097800  	0.022460  	-0.098200 
7.000000  	1.196900  	0.023460  	-0.094700 
8.000000  	1.286800  	0.023980  	-0.089200 
9.000000  	1.355800  	0.024610  	-0.080600 
10.000000 	1.369800  	0.027130  	0.000000  
15.714286 	1.041868  	0.083563  	-0.116677 
21.428571 	0.929414  	0.162108  	-0.209872 
27.142857 	0.884379  	0.259660  	-0.232621 
32.857143 	0.859696  	0.372368  	-0.253969 
38.571429 	0.835128  	0.495779  	-0.273917 
44.285714 	0.800589  	0.625021  	-0.293852 
50.000000 	0.750939  	0.754993  	-0.313783 
55.714286 	0.683976  	0.880568  	-0.332428 
61.428571 	0.599526  	0.996794  	-0.350574 
67.142857 	0.498954  	1.099093  	-0.367219 
72.857143 	0.384838  	1.183443  	-0.382339 
78.571429 	0.260712  	1.246531  	-0.395933 
84.285714 	0.130842  	1.285892  	-0.406386 
90.000000 	0.000000  	1.300000  	-0.415792 
95.714286 	-0.091589 	1.285892  	-0.416848 
101.428571	-0.182499 	1.246531  	-0.415937 
107.142857	-0.269387 	1.183443  	-0.409121 
112.857143	-0.349268 	1.099093  	-0.399381 
118.571429	-0.419668 	0.996794  	-0.386715 
124.285714	-0.478783 	0.880568  	-0.371895 
130.000000	-0.525658 	0.754993  	-0.356358 
135.714286	-0.560413 	0.625021  	-0.341718 
141.428571	-0.584589 	0.495779  	-0.329051 
147.142857	-0.601787 	0.372368  	-0.322300 
152.857143	-0.619065 	0.259660  	-0.327505 
158.571429	-0.650590 	0.162108  	-0.344667 
164.285714	-0.729307 	0.083563  	-0.413690 
170.000000	-0.958860 	0.027130  	-0.500000 
170.714286	-0.890370 	0.021752  	-0.464286 
171.428571	-0.821880 	0.016759  	-0.428571 
172.142857	-0.753390 	0.013800  	-0.392857 
172.857143	-0.684900 	0.013800  	-0.357143 
173.571429	-0.616410 	0.013800  	-0.321429 
174.285714	-0.547920 	0.013800  	-0.285714 
175.000000	-0.479430 	0.013800  	-0.250000 
175.714286	-0.410940 	0.013800  	-0.214286 
176.428571	-0.342450 	0.013800  	-0.178571 
177.142857	-0.273960 	0.013800  	-0.142857 
177.857143	-0.205470 	0.013800  	-0.107143 
178.571429	-0.136980 	0.013800  	-0.071429 
179.285714	-0.068490 	0.013800  	-0.035714 
180.000000	0.000000  	0.013800  	0.000000  
