AeroDyn airfoil file.
 
Compatible with AeroDyn v13.0.
Generated by airfoilprep.py
1         		Number of airfoil tables in this file   
0.244912  	Reynolds number in millions.            
0.000000  	Control setting                         
3.223815  	Stall angle (deg)                       
-6.112539 	Angle of attack for zero Cn for linear Cn curve (deg)
5.083078  	Cn slope for zero lift for linear Cn curve (1/rad)
0.828288  	Cn at stall value for positive angle of attack for linear Cn curve
-0.348067 	Cn at stall value for negative angle of attack for linear Cn curve
-3.141593 	Angle of attack for minimum CD (deg)    
0.013800  	Minimum CD value                        
-180.000000	0.000000  	0.013800  	0.000000  
-179.785714	0.039565  	0.013800  	0.008571  
-179.571429	0.079130  	0.013800  	0.017143  
-179.357143	0.118695  	0.013800  	0.025714  
-179.142857	0.158260  	0.013800  	0.034286  
-178.928571	0.197825  	0.013800  	0.042857  
-178.714286	0.237390  	0.013800  	0.051429  
-178.500000	0.276955  	0.013800  	0.060000  
-178.285714	0.316520  	0.013800  	0.068571  
-178.071429	0.356085  	0.013800  	0.077143  
-177.857143	0.395650  	0.013800  	0.085714  
-177.642857	0.435215  	0.013800  	0.094286  
-177.428571	0.474780  	0.014090  	0.102857  
-177.214286	0.514345  	0.014542  	0.111429  
-177.000000	0.553910  	0.015030  	0.120000  
-170.785714	0.305530  	0.044670  	0.368571  
-164.571429	0.326185  	0.103079  	0.295975  
-158.357143	0.374213  	0.187512  	0.214052  
-152.142857	0.420391  	0.293996  	0.235525  
-145.928571	0.454838  	0.417523  	0.259712  
-139.714286	0.472768  	0.552279  	0.285341  
-133.500000	0.471735  	0.691924  	0.311256  
-127.285714	0.450860  	0.829881  	0.336419  
-121.071429	0.410536  	0.959652  	0.360614  
-114.857143	0.352262  	1.075118  	0.380609  
-108.642857	0.278500  	1.170827  	0.398081  
-102.428571	0.192523  	1.242255  	0.409655  
-96.214286	0.098239  	1.286011  	0.416108  
-90.000000	0.000000  	1.300000  	0.419275  
-83.857143	-0.097124 	1.286343  	0.412371  
-77.714286	-0.190433 	1.243582  	0.402454  
-71.571429	-0.275718 	1.173717  	0.387453  
-65.428571	-0.349188 	1.079990  	0.367410  
-59.285714	-0.407654 	0.966731  	0.345104  
-53.142857	-0.448692 	0.839167  	0.318781  
-47.000000	-0.470791 	0.703174  	0.291896  
-40.857143	-0.473488 	0.565015  	0.264421  
-34.714286	-0.457516 	0.431047  	0.237531  
-28.571429	-0.425066 	0.307431  	0.211441  
-22.428571	-0.380440 	0.199852  	0.187681  
-16.285714	-0.332257 	0.113256  	0.166928  
-10.142857	-0.303965 	0.051621  	0.148142  
-4.000000 	0.160300  	0.030150  	-0.095000 
-1.000000 	0.492100  	0.013800  	-0.096500 
0.000000  	0.563400  	0.013800  	-0.092500 
1.000000  	0.634200  	0.013800  	-0.088500 
2.000000  	0.704000  	0.014460  	-0.083800 
3.000000  	0.791300  	0.015030  	-0.083400 
9.214286  	0.436472  	0.044670  	-0.160476 
15.428571 	0.465978  	0.103079  	-0.191354 
21.642857 	0.534590  	0.187512  	-0.216389 
27.857143 	0.600558  	0.293996  	-0.243773 
34.071429 	0.649769  	0.417523  	-0.270983 
40.285714 	0.675382  	0.552279  	-0.297962 
46.500000 	0.673907  	0.691924  	-0.321992 
52.714286 	0.644086  	0.829881  	-0.344562 
58.928571 	0.586480  	0.959652  	-0.365252 
65.142857 	0.503232  	1.075118  	-0.381896 
71.357143 	0.397858  	1.170827  	-0.396501 
77.571429 	0.275033  	1.242255  	-0.406832 
83.785714 	0.140342  	1.286011  	-0.414051 
90.000000 	0.000000  	1.300000  	-0.419275 
96.214286 	-0.098239 	1.286011  	-0.416108 
102.428571	-0.192523 	1.242255  	-0.409655 
108.642857	-0.278500 	1.170827  	-0.398081 
114.857143	-0.352262 	1.075118  	-0.380609 
121.071429	-0.410536 	0.959652  	-0.360614 
127.285714	-0.450860 	0.829881  	-0.336419 
133.500000	-0.471735 	0.691924  	-0.311256 
139.714286	-0.472768 	0.552279  	-0.285341 
145.928571	-0.454838 	0.417523  	-0.259712 
152.142857	-0.420391 	0.293996  	-0.235525 
158.357143	-0.374213 	0.187512  	-0.214052 
164.571429	-0.326185 	0.103079  	-0.341689 
170.785714	-0.305530 	0.044670  	-0.460714 
177.000000	-0.553910 	0.015030  	-0.150000 
177.214286	-0.514345 	0.014542  	-0.139286 
177.428571	-0.474780 	0.014090  	-0.128571 
177.642857	-0.435215 	0.013800  	-0.117857 
177.857143	-0.395650 	0.013800  	-0.107143 
178.071429	-0.356085 	0.013800  	-0.096429 
178.285714	-0.316520 	0.013800  	-0.085714 
178.500000	-0.276955 	0.013800  	-0.075000 
178.714286	-0.237390 	0.013800  	-0.064286 
178.928571	-0.197825 	0.013800  	-0.053571 
179.142857	-0.158260 	0.013800  	-0.042857 
179.357143	-0.118695 	0.013800  	-0.032143 
179.571429	-0.079130 	0.013800  	-0.021429 
179.785714	-0.039565 	0.013800  	-0.010714 
180.000000	0.000000  	0.013800  	0.000000  
