AeroDyn airfoil file.
 
Compatible with AeroDyn v13.0.
Generated by airfoilprep.py
1         		Number of airfoil tables in this file   
0.003000  	Reynolds number in millions.            
0.000000  	Control setting                         
5.821592  	Stall angle (deg)                       
-1.608216 	Angle of attack for zero Cn for linear Cn curve (deg)
6.148902  	Cn slope for zero lift for linear Cn curve (1/rad)
0.797356  	Cn at stall value for positive angle of attack for linear Cn curve
-0.192171 	Cn at stall value for negative angle of attack for linear Cn curve
-0.017453 	Angle of attack for minimum CD (deg)    
0.065370  	Minimum CD value                        
-180.000000	0.000000  	0.193167  	0.000000  
-177.500000	0.082900  	0.195457  	0.100000  
-175.000000	0.165800  	0.202307  	0.200000  
-172.500000	0.248700  	0.213663  	0.300000  
-170.000000	0.331600  	0.229432  	0.400000  
-167.500000	0.414500  	0.249488  	0.382368  
-165.000000	0.497400  	0.273668  	0.364736  
-162.500000	0.580300  	0.301778  	0.347104  
-160.000000	0.663200  	0.333589  	0.329472  
-157.500000	0.746100  	0.368844  	0.351550  
-155.000000	0.829000  	0.407257  	0.373628  
-152.500000	0.911900  	0.448516  	0.395706  
-150.000000	0.994800  	0.492287  	0.417784  
-147.500000	1.077700  	0.538213  	0.420369  
-145.000000	1.160600  	0.585920  	0.422953  
-141.071429	1.048308  	0.663543  	0.427014  
-137.142857	0.948767  	0.743027  	0.420132  
-133.214286	0.857223  	0.822757  	0.409147  
-129.285714	0.770554  	0.901106  	0.399861  
-125.357143	0.686742  	0.976462  	0.398219  
-121.428571	0.604553  	1.047261  	0.396578  
-117.500000	0.523331  	1.112019  	0.396851  
-113.571429	0.442862  	1.169358  	0.398219  
-109.642857	0.363282  	1.218033  	0.399458  
-105.714286	0.285002  	1.256956  	0.399418  
-101.785714	0.208655  	1.285220  	0.399377  
-97.857143	0.135053  	1.302112  	0.397195  
-93.928571	0.065148  	1.307132  	0.393227  
-90.000000	0.000000  	1.300000  	0.389260  
-86.071429	-0.065148 	1.307132  	0.386015  
-82.142857	-0.135053 	1.302112  	0.382771  
-78.214286	-0.208655 	1.285220  	0.377720  
-74.285714	-0.285002 	1.256956  	0.370503  
-70.357143	-0.363282 	1.218033  	0.363286  
-66.428571	-0.442862 	1.169358  	0.354536  
-62.500000	-0.523331 	1.112019  	0.345633  
-58.571429	-0.604553 	1.047261  	0.337224  
-54.642857	-0.686742 	0.976462  	0.329680  
-50.714286	-0.770554 	0.901106  	0.322135  
-46.785714	-0.857223 	0.822757  	0.317867  
-42.857143	-0.948767 	0.743027  	0.314326  
-38.928571	-1.048308 	0.663543  	0.306838  
-35.000000	-1.160600 	0.585920  	0.288824  
-32.785714	-1.087671 	0.550105  	0.278671  
-30.571429	-1.014743 	0.514290  	0.268518  
-28.357143	-0.941814 	0.478475  	0.249914  
-26.142857	-0.868886 	0.442660  	0.228371  
-23.928571	-0.795957 	0.406845  	0.206828  
-21.714286	-0.723029 	0.371030  	0.185285  
-19.500000	-0.650100 	0.335215  	0.163818  
-17.285714	-0.577171 	0.299400  	0.142608  
-15.071429	-0.504243 	0.263585  	0.121398  
-12.857143	-0.431314 	0.227770  	0.100188  
-10.642857	-0.358386 	0.191955  	0.078978  
-8.428571 	-0.285457 	0.156140  	0.043665  
-4.000000 	-0.139600 	0.084510  	-0.038500 
-3.000000 	-0.136300 	0.077910  	-0.036000 
-2.000000 	-0.140300 	0.071580  	-0.032600 
-1.000000 	-0.087000 	0.065370  	-0.046500 
0.000000  	0.207900  	0.066310  	-0.106700 
1.000000  	0.326100  	0.068490  	-0.111800 
2.000000  	0.426400  	0.071240  	-0.113400 
3.000000  	0.517700  	0.074610  	-0.113800 
4.000000  	0.603000  	0.078730  	-0.113400 
5.000000  	0.682300  	0.083750  	-0.112600 
6.000000  	0.755200  	0.089920  	-0.111900 
7.000000  	0.820800  	0.097670  	-0.111600 
8.000000  	0.875500  	0.107960  	-0.112700 
9.000000  	0.904600  	0.123490  	-0.118800 
10.000000 	0.907100  	0.144750  	-0.131100 
11.000000 	0.918300  	0.165320  	-0.143500 
12.000000 	0.941700  	0.184150  	-0.154600 
13.000000 	0.972400  	0.201960  	-0.164900 
14.000000 	1.007200  	0.219270  	-0.174800 
15.000000 	1.044400  	0.236330  	-0.184500 
16.000000 	1.082800  	0.253420  	-0.194200 
17.000000 	1.121700  	0.270320  	-0.203800 
18.000000 	1.160500  	0.287240  	-0.213500 
19.000000 	1.199100  	0.304190  	-0.223300 
20.000000 	1.237000  	0.321270  	-0.233100 
21.000000 	1.273900  	0.338620  	-0.243000 
22.000000 	1.310400  	0.356220  	-0.253100 
23.000000 	1.345600  	0.373760  	-0.263200 
24.000000 	1.379800  	0.391350  	-0.273400 
25.000000 	1.412700  	0.409000  	-0.283800 
26.000000 	1.444200  	0.426660  	-0.294200 
27.000000 	1.474500  	0.444420  	-0.304700 
28.000000 	1.503200  	0.462150  	-0.315300 
29.000000 	1.530400  	0.479920  	-0.326000 
30.000000 	1.556000  	0.497680  	-0.336700 
31.000000 	1.580000  	0.515430  	-0.347500 
32.000000 	1.602100  	0.533100  	-0.358400 
33.000000 	1.622700  	0.550800  	-0.369300 
34.000000 	1.641200  	0.568350  	-0.380300 
35.000000 	1.658000  	0.585920  	-0.391200 
38.928571 	1.497582  	0.663543  	-0.382094 
42.857143 	1.355382  	0.743027  	-0.376196 
46.785714 	1.224604  	0.822757  	-0.371501 
50.714286 	1.100791  	0.901106  	-0.367679 
54.642857 	0.981060  	0.976462  	-0.367785 
58.571429 	0.863647  	1.047261  	-0.367892 
62.500000 	0.747615  	1.112019  	-0.369803 
66.428571 	0.632660  	1.169358  	-0.372744 
70.357143 	0.518974  	1.218033  	-0.375730 
74.285714 	0.407145  	1.256956  	-0.379168 
78.214286 	0.298078  	1.285220  	-0.382606 
82.142857 	0.192933  	1.302112  	-0.385260 
86.071429 	0.093069  	1.307132  	-0.387260 
90.000000 	0.000000  	1.300000  	-0.389260 
93.928571 	-0.065148 	1.307132  	-0.393227 
97.857143 	-0.135053 	1.302112  	-0.397195 
101.785714	-0.208655 	1.285220  	-0.399377 
105.714286	-0.285002 	1.256956  	-0.399418 
109.642857	-0.363282 	1.218033  	-0.399458 
113.571429	-0.442862 	1.169358  	-0.398219 
117.500000	-0.523331 	1.112019  	-0.396851 
121.428571	-0.604553 	1.047261  	-0.396578 
125.357143	-0.686742 	0.976462  	-0.398219 
129.285714	-0.770554 	0.901106  	-0.399861 
133.214286	-0.857223 	0.822757  	-0.409147 
137.142857	-0.948767 	0.743027  	-0.420132 
141.071429	-1.048308 	0.663543  	-0.427014 
145.000000	-1.160600 	0.585920  	-0.422953 
147.500000	-1.077700 	0.538213  	-0.420369 
150.000000	-0.994800 	0.492287  	-0.417784 
152.500000	-0.911900 	0.448516  	-0.395706 
155.000000	-0.829000 	0.407257  	-0.373628 
157.500000	-0.746100 	0.368844  	-0.351550 
160.000000	-0.663200 	0.333589  	-0.329472 
162.500000	-0.580300 	0.301778  	-0.372104 
165.000000	-0.497400 	0.273668  	-0.414736 
167.500000	-0.414500 	0.249488  	-0.457368 
170.000000	-0.331600 	0.229432  	-0.500000 
172.500000	-0.248700 	0.213663  	-0.375000 
175.000000	-0.165800 	0.202307  	-0.250000 
177.500000	-0.082900 	0.195457  	-0.125000 
180.000000	0.000000  	0.193167  	0.000000  
