AeroDyn airfoil file.
 
Compatible with AeroDyn v13.0.
Generated by airfoilprep.py
1         		Number of airfoil tables in this file   
0.003000  	Reynolds number in millions.            
0.000000  	Control setting                         
39.000000 	Stall angle (deg)                       
5.993405  	Angle of attack for zero Cn for linear Cn curve (deg)
0.645067  	Cn slope for zero lift for linear Cn curve (1/rad)
0.371606  	Cn at stall value for positive angle of attack for linear Cn curve
-0.506560 	Cn at stall value for negative angle of attack for linear Cn curve
-0.017453 	Angle of attack for minimum CD (deg)    
0.101360  	Minimum CD value                        
-180.000000	0.000000  	0.141063  	0.000000  
-178.928571	0.027090  	0.141493  	0.042857  
-177.857143	0.054180  	0.142782  	0.085714  
-176.785714	0.081270  	0.144928  	0.128571  
-175.714286	0.108360  	0.147929  	0.171429  
-174.642857	0.135450  	0.151779  	0.214286  
-173.571429	0.162540  	0.156473  	0.257143  
-172.500000	0.189630  	0.162005  	0.300000  
-171.428571	0.216720  	0.168365  	0.342857  
-170.357143	0.243810  	0.175546  	0.385714  
-169.285714	0.270900  	0.183536  	0.384200  
-168.214286	0.297990  	0.192324  	0.360501  
-167.142857	0.325080  	0.201897  	0.336801  
-166.071429	0.352170  	0.212240  	0.313102  
-165.000000	0.379260  	0.223340  	0.289402  
-159.642857	0.403163  	0.289571  	0.179747  
-154.285714	0.434494  	0.371825  	0.193874  
-148.928571	0.462115  	0.467099  	0.209041  
-143.571429	0.480681  	0.571908  	0.228362  
-138.214286	0.487265  	0.682406  	0.247734  
-132.857143	0.480296  	0.794522  	0.267207  
-127.500000	0.459161  	0.904106  	0.285359  
-122.142857	0.424014  	1.007075  	0.302001  
-116.785714	0.375669  	1.099554  	0.315469  
-111.428571	0.315515  	1.178020  	0.326820  
-106.071429	0.245432  	1.239422  	0.332907  
-100.714286	0.167711  	1.281293  	0.337080  
-95.357143	0.084958  	1.301838  	0.334140  
-90.000000	0.000000  	1.300000  	0.330106  
-84.642857	-0.084958 	1.301838  	0.323857  
-79.285714	-0.167711 	1.281293  	0.316574  
-73.928571	-0.245432 	1.239422  	0.302573  
-68.571429	-0.315515 	1.178020  	0.286950  
-63.214286	-0.375669 	1.099554  	0.266867  
-57.857143	-0.424014 	1.007075  	0.245228  
-52.500000	-0.459161 	0.904106  	0.221254  
-47.142857	-0.480296 	0.794522  	0.196403  
-41.785714	-0.487265 	0.682406  	0.170784  
-36.428571	-0.480681 	0.571908  	0.145284  
-31.071429	-0.462115 	0.467099  	0.119844  
-25.714286	-0.434494 	0.371825  	0.095081  
-20.357143	-0.403163 	0.289571  	0.070487  
-15.000000	-0.379260 	0.223340  	0.038203  
-14.285714	-0.353213 	0.214882  	0.033825  
-13.571429	-0.327166 	0.206424  	0.029447  
-12.857143	-0.301119 	0.197966  	0.025069  
-12.142857	-0.275071 	0.189509  	0.020691  
-11.428571	-0.249024 	0.181051  	0.016313  
-10.714286	-0.222977 	0.172593  	0.011936  
-10.000000	-0.196930 	0.164135  	0.007558  
-9.285714 	-0.170883 	0.155677  	0.001621  
-8.571429 	-0.144836 	0.147219  	-0.004316 
-7.857143 	-0.118789 	0.138761  	-0.010253 
-7.142857 	-0.092741 	0.130304  	-0.016190 
-6.428571 	-0.066694 	0.121846  	-0.022126 
-5.000000 	-0.014600 	0.104930  	-0.034000 
-4.000000 	-0.058300 	0.103970  	-0.027500 
-3.000000 	-0.102000 	0.102860  	-0.020100 
-2.000000 	-0.134900 	0.101720  	-0.012900 
-1.000000 	-0.148900 	0.101360  	-0.006900 
0.000000  	-0.139700 	0.102390  	-0.003400 
1.000000  	-0.113100 	0.104900  	-0.002200 
2.000000  	-0.076200 	0.108600  	-0.002400 
3.000000  	-0.033200 	0.113330  	-0.003600 
4.000000  	0.013100  	0.118920  	-0.005700 
5.000000  	0.061600  	0.125300  	-0.008500 
6.000000  	0.111100  	0.132370  	-0.011700 
7.000000  	0.161100  	0.140070  	-0.015500 
8.000000  	0.211200  	0.148390  	-0.019700 
9.000000  	0.261000  	0.157340  	-0.024300 
10.000000 	0.310200  	0.166870  	-0.029300 
11.000000 	0.358700  	0.176990  	-0.034600 
12.000000 	0.406100  	0.187720  	-0.040300 
13.000000 	0.452500  	0.199050  	-0.046200 
14.000000 	0.497700  	0.210890  	-0.052500 
15.000000 	0.541800  	0.223340  	-0.059000 
20.357143 	0.575948  	0.289571  	-0.092490 
25.714286 	0.620706  	0.371825  	-0.121526 
31.071429 	0.660164  	0.467099  	-0.150037 
36.428571 	0.686687  	0.571908  	-0.176451 
41.785714 	0.696093  	0.682406  	-0.201870 
47.142857 	0.686138  	0.794522  	-0.225302 
52.500000 	0.655945  	0.904106  	-0.246946 
57.857143 	0.605735  	1.007075  	-0.266546 
63.214286 	0.536671  	1.099554  	-0.283428 
68.571429 	0.450736  	1.178020  	-0.298497 
73.928571 	0.350617  	1.239422  	-0.309883 
79.285714 	0.239587  	1.281293  	-0.319930 
84.642857 	0.121369  	1.301838  	-0.325372 
90.000000 	0.000000  	1.300000  	-0.330106 
95.357143 	-0.084958 	1.301838  	-0.334140 
100.714286	-0.167711 	1.281293  	-0.337080 
106.071429	-0.245432 	1.239422  	-0.332907 
111.428571	-0.315515 	1.178020  	-0.326820 
116.785714	-0.375669 	1.099554  	-0.315469 
122.142857	-0.424014 	1.007075  	-0.302001 
127.500000	-0.459161 	0.904106  	-0.285359 
132.857143	-0.480296 	0.794522  	-0.267207 
138.214286	-0.487265 	0.682406  	-0.247734 
143.571429	-0.480681 	0.571908  	-0.228362 
148.928571	-0.462115 	0.467099  	-0.209041 
154.285714	-0.434494 	0.371825  	-0.193874 
159.642857	-0.403163 	0.289571  	-0.179747 
165.000000	-0.379260 	0.223340  	-0.339402 
166.071429	-0.352170 	0.212240  	-0.373816 
167.142857	-0.325080 	0.201897  	-0.408230 
168.214286	-0.297990 	0.192324  	-0.442644 
169.285714	-0.270900 	0.183536  	-0.477057 
170.357143	-0.243810 	0.175546  	-0.482143 
171.428571	-0.216720 	0.168365  	-0.428571 
172.500000	-0.189630 	0.162005  	-0.375000 
173.571429	-0.162540 	0.156473  	-0.321429 
174.642857	-0.135450 	0.151779  	-0.267857 
175.714286	-0.108360 	0.147929  	-0.214286 
176.785714	-0.081270 	0.144928  	-0.160714 
177.857143	-0.054180 	0.142782  	-0.107143 
178.928571	-0.027090 	0.141493  	-0.053571 
180.000000	0.000000  	0.141063  	0.000000  
