AeroDyn airfoil file.
 
Compatible with AeroDyn v13.0.
Generated by airfoilprep.py
1         		Number of airfoil tables in this file   
0.010000  	Reynolds number in millions.            
0.000000  	Control setting                         
0.000000  	Stall angle (deg)                       
-0.893935 	Angle of attack for zero Cn for linear Cn curve (deg)
2.507921  	Cn slope for zero lift for linear Cn curve (1/rad)
0.039129  	Cn at stall value for positive angle of attack for linear Cn curve
0.257986  	Cn at stall value for negative angle of attack for linear Cn curve
-0.017453 	Angle of attack for minimum CD (deg)    
0.043350  	Minimum CD value                        
-180.000000	0.000000  	0.116846  	0.000000  
-178.642857	0.045178  	0.117542  	0.054286  
-177.285714	0.090357  	0.119630  	0.108571  
-175.928571	0.135535  	0.123104  	0.162857  
-174.571429	0.180713  	0.127957  	0.217143  
-173.214286	0.225892  	0.134176  	0.271429  
-171.857143	0.271070  	0.141749  	0.325714  
-170.500000	0.316248  	0.150656  	0.380000  
-169.142857	0.361427  	0.160878  	0.391666  
-167.785714	0.406605  	0.172390  	0.378470  
-166.428571	0.451784  	0.185166  	0.365275  
-165.071429	0.496962  	0.199177  	0.352079  
-163.714286	0.542140  	0.214389  	0.338884  
-162.357143	0.587319  	0.230767  	0.325688  
-161.000000	0.632497  	0.248273  	0.312493  
-155.928571	0.601161  	0.322955  	0.293302  
-150.857143	0.588069  	0.410360  	0.281508  
-145.785714	0.579191  	0.507645  	0.285627  
-140.714286	0.567387  	0.611643  	0.292982  
-135.642857	0.548718  	0.718959  	0.304797  
-130.571429	0.521036  	0.826077  	0.317343  
-125.500000	0.483363  	0.929472  	0.329672  
-120.428571	0.435574  	1.025721  	0.341974  
-115.357143	0.378213  	1.111612  	0.350897  
-110.285714	0.312375  	1.184248  	0.359509  
-105.214286	0.239600  	1.241134  	0.362358  
-100.142857	0.161792  	1.280261  	0.364863  
-95.071429	0.081134  	1.300171  	0.360089  
-90.000000	0.000000  	1.300000  	0.355104  
-84.928571	-0.081134 	1.300171  	0.347346  
-79.857143	-0.161792 	1.280261  	0.339393  
-74.785714	-0.239600 	1.241134  	0.324709  
-69.714286	-0.312375 	1.184248  	0.309748  
-64.642857	-0.378213 	1.111612  	0.290130  
-59.571429	-0.435574 	1.025721  	0.270295  
-54.500000	-0.483363 	0.929472  	0.248104  
-49.428571	-0.521036 	0.826077  	0.225872  
-44.357143	-0.548718 	0.718959  	0.203319  
-39.285714	-0.567387 	0.611643  	0.180902  
-34.214286	-0.579191 	0.507645  	0.159320  
-29.142857	-0.588069 	0.410360  	0.137555  
-24.071429	-0.601161 	0.322955  	0.114886  
-19.000000	-0.708099 	0.248327  	0.048237  
-18.000000	-0.669873 	0.234748  	0.043467  
-17.000000	-0.628205 	0.220150  	0.039075  
-16.000000	-0.578465 	0.203967  	0.035253  
-15.000000	-0.485897 	0.181120  	0.025432  
-14.000000	-0.376785 	0.154265  	0.002489  
-13.000000	-0.336093 	0.142237  	-0.004172 
-12.000000	-0.296124 	0.130305  	-0.010495 
-11.000000	-0.257162 	0.118489  	-0.016476 
-10.000000	-0.219436 	0.106842  	-0.022136 
-9.000000 	-0.183089 	0.095466  	-0.027539 
-8.000000 	-0.148277 	0.084539  	-0.032766 
-7.000000 	-0.115381 	0.074348  	-0.037815 
-6.000000 	-0.085108 	0.065357  	-0.042362 
-5.000000 	-0.059570 	0.058034  	-0.045533 
-4.000000 	-0.047591 	0.052774  	-0.045473 
-3.000000 	-0.065621 	0.049567  	-0.039593 
-2.000000 	-0.113390 	0.046768  	-0.028886 
-1.000000 	-0.157290 	0.043350  	-0.019287 
0.000000  	-0.076462 	0.043885  	-0.026072 
1.000000  	0.024640  	0.046367  	-0.031404 
2.000000  	0.114741  	0.049281  	-0.032659 
3.000000  	0.195562  	0.052362  	-0.031512 
4.000000  	0.271516  	0.055643  	-0.029361 
5.000000  	0.345084  	0.059203  	-0.026897 
6.000000  	0.417085  	0.063184  	-0.024508 
7.000000  	0.483048  	0.068516  	-0.023224 
8.000000  	0.474240  	0.085388  	-0.031765 
9.000000  	0.580122  	0.112899  	-0.060682 
11.000000 	0.535515  	0.129592  	-0.050115 
12.000000 	0.568250  	0.143184  	-0.055480 
13.000000 	0.603023  	0.156641  	-0.061048 
14.000000 	0.639164  	0.170003  	-0.066846 
15.000000 	0.711064  	0.190646  	-0.081867 
16.000000 	0.767197  	0.207426  	-0.092045 
17.000000 	0.813314  	0.220856  	-0.099640 
19.000000 	0.903567  	0.248273  	-0.113774 
24.071429 	0.858801  	0.322955  	-0.143234 
29.142857 	0.840099  	0.410360  	-0.170381 
34.214286 	0.827416  	0.507645  	-0.193138 
39.285714 	0.810553  	0.611643  	-0.215002 
44.357143 	0.783882  	0.718959  	-0.235214 
49.428571 	0.744337  	0.826077  	-0.255155 
54.500000 	0.690519  	0.929472  	-0.273106 
59.571429 	0.622249  	1.025721  	-0.290804 
64.642857 	0.540305  	1.111612  	-0.305736 
69.714286 	0.446249  	1.184248  	-0.320414 
74.785714 	0.342285  	1.241134  	-0.331491 
79.857143 	0.231132  	1.280261  	-0.342353 
84.928571 	0.115905  	1.300171  	-0.348793 
90.000000 	0.000000  	1.300000  	-0.355104 
95.071429 	-0.081134 	1.300171  	-0.360089 
100.142857	-0.161792 	1.280261  	-0.364863 
105.214286	-0.239600 	1.241134  	-0.362358 
110.285714	-0.312375 	1.184248  	-0.359509 
115.357143	-0.378213 	1.111612  	-0.350897 
120.428571	-0.435574 	1.025721  	-0.341974 
125.500000	-0.483363 	0.929472  	-0.329672 
130.571429	-0.521036 	0.826077  	-0.317343 
135.642857	-0.548718 	0.718959  	-0.304797 
140.714286	-0.567387 	0.611643  	-0.292982 
145.785714	-0.579191 	0.507645  	-0.285627 
150.857143	-0.588069 	0.410360  	-0.281508 
155.928571	-0.601161 	0.322955  	-0.293302 
161.000000	-0.632497 	0.248273  	-0.322493 
162.357143	-0.587319 	0.230767  	-0.349260 
163.714286	-0.542140 	0.214389  	-0.376027 
165.071429	-0.496962 	0.199177  	-0.402794 
166.428571	-0.451784 	0.185166  	-0.429561 
167.785714	-0.406605 	0.172390  	-0.456328 
169.142857	-0.361427 	0.160878  	-0.483095 
170.500000	-0.316248 	0.150656  	-0.475000 
171.857143	-0.271070 	0.141749  	-0.407143 
173.214286	-0.225892 	0.134176  	-0.339286 
174.571429	-0.180713 	0.127957  	-0.271429 
175.928571	-0.135535 	0.123104  	-0.203571 
177.285714	-0.090357 	0.119630  	-0.135714 
178.642857	-0.045178 	0.117542  	-0.067857 
180.000000	0.000000  	0.116846  	0.000000  
