AeroDyn airfoil file.
 
Compatible with AeroDyn v13.0.
Generated by airfoilprep.py
1         		Number of airfoil tables in this file   
0.010000  	Reynolds number in millions.            
0.000000  	Control setting                         
0.000000  	Stall angle (deg)                       
-1.365427 	Angle of attack for zero Cn for linear Cn curve (deg)
2.938231  	Cn slope for zero lift for linear Cn curve (1/rad)
0.070022  	Cn at stall value for positive angle of attack for linear Cn curve
0.326431  	Cn at stall value for negative angle of attack for linear Cn curve
-0.017453 	Angle of attack for minimum CD (deg)    
0.040579  	Minimum CD value                        
-180.000000	0.000000  	0.125744  	0.000000  
-178.642857	0.047839  	0.126438  	0.054286  
-177.285714	0.095678  	0.128518  	0.108571  
-175.928571	0.143517  	0.131980  	0.162857  
-174.571429	0.191356  	0.136815  	0.217143  
-173.214286	0.239195  	0.143012  	0.271429  
-171.857143	0.287034  	0.150557  	0.325714  
-170.500000	0.334873  	0.159432  	0.380000  
-169.142857	0.382712  	0.169617  	0.393104  
-167.785714	0.430551  	0.181087  	0.382185  
-166.428571	0.478390  	0.193816  	0.371267  
-165.071429	0.526229  	0.207775  	0.360348  
-163.714286	0.574067  	0.222930  	0.349429  
-162.357143	0.621906  	0.239246  	0.338510  
-161.000000	0.669745  	0.256686  	0.327592  
-155.928571	0.628885  	0.331080  	0.307490  
-150.857143	0.609318  	0.418131  	0.292473  
-145.785714	0.595688  	0.515003  	0.294874  
-140.714286	0.580221  	0.618531  	0.300819  
-135.642857	0.558636  	0.725322  	0.311781  
-130.571429	0.528590  	0.831865  	0.323566  
-125.500000	0.488982  	0.934639  	0.335418  
-120.428571	0.439609  	1.030227  	0.347278  
-115.357143	0.380967  	1.115423  	0.355929  
-110.285714	0.314113  	1.187333  	0.364283  
-105.214286	0.240568  	1.243469  	0.366979  
-100.142857	0.162219  	1.281828  	0.369337  
-95.071429	0.081240  	1.300957  	0.364470  
-90.000000	0.000000  	1.300000  	0.359394  
-84.928571	-0.081240 	1.300957  	0.351948  
-79.857143	-0.162219 	1.281828  	0.344308  
-74.785714	-0.240568 	1.243469  	0.329945  
-69.714286	-0.314113 	1.187333  	0.315306  
-64.642857	-0.380967 	1.115423  	0.296033  
-59.571429	-0.439609 	1.030227  	0.276547  
-54.500000	-0.488982 	0.934639  	0.254747  
-49.428571	-0.528590 	0.831865  	0.232913  
-44.357143	-0.558636 	0.725322  	0.210815  
-39.285714	-0.580221 	0.618531  	0.188866  
-34.214286	-0.595688 	0.515003  	0.167816  
-29.142857	-0.609318 	0.418131  	0.146570  
-24.071429	-0.628885 	0.331080  	0.124364  
-19.000000	-0.477335 	0.229770  	0.029577  
-18.000000	-0.459815 	0.221122  	0.027322  
-17.000000	-0.433795 	0.209182  	0.024923  
-16.000000	-0.405724 	0.198018  	0.023243  
-15.000000	-0.365008 	0.184418  	0.019924  
-14.000000	-0.393303 	0.157559  	0.021481  
-13.000000	-0.349275 	0.144968  	0.013904  
-12.000000	-0.305798 	0.132478  	0.006621  
-11.000000	-0.263192 	0.120098  	-0.000363 
-10.000000	-0.221686 	0.107889  	-0.007074 
-9.000000 	-0.181307 	0.095977  	-0.013583 
-8.000000 	-0.142020 	0.084567  	-0.019994 
-7.000000 	-0.134054 	0.077210  	-0.019083 
-6.000000 	-0.176894 	0.073494  	-0.008875 
-5.000000 	-0.142301 	0.063033  	-0.015377 
-4.000000 	-0.026212 	0.050087  	-0.041415 
-3.000000 	-0.045865 	0.046324  	-0.037422 
-2.000000 	-0.100637 	0.042985  	-0.027417 
-1.000000 	-0.103237 	0.040579  	-0.025867 
0.000000  	-0.000536 	0.042137  	-0.034382 
1.000000  	0.089343  	0.044660  	-0.036385 
2.000000  	0.168646  	0.047628  	-0.035950 
3.000000  	0.242518  	0.051102  	-0.034936 
4.000000  	0.312237  	0.055181  	-0.033925 
5.000000  	0.377605  	0.060024  	-0.033218 
6.000000  	0.437218  	0.065915  	-0.033116 
7.000000  	0.487751  	0.073458  	-0.034162 
8.000000  	0.522646  	0.083975  	-0.037489 
9.000000  	0.541981  	0.097998  	-0.043475 
10.000000 	0.561544  	0.113134  	-0.050120 
11.000000 	0.585913  	0.128328  	-0.056787 
12.000000 	0.614613  	0.143427  	-0.063563 
13.000000 	0.646809  	0.158372  	-0.070452 
14.000000 	0.681718  	0.173060  	-0.077363 
15.000000 	0.769218  	0.198081  	-0.096677 
16.000000 	0.825062  	0.215312  	-0.106180 
17.000000 	0.869719  	0.228676  	-0.112945 
18.000000 	0.913769  	0.242894  	-0.119582 
19.000000 	0.956779  	0.256686  	-0.125760 
24.071429 	0.898408  	0.331080  	-0.154627 
29.142857 	0.870454  	0.418131  	-0.181018 
34.214286 	0.850983  	0.515003  	-0.202957 
39.285714 	0.828887  	0.618531  	-0.223990 
44.357143 	0.798052  	0.725322  	-0.243499 
49.428571 	0.755129  	0.831865  	-0.262757 
54.500000 	0.698546  	0.934639  	-0.280151 
59.571429 	0.628013  	1.030227  	-0.297308 
64.642857 	0.544238  	1.115423  	-0.311802 
69.714286 	0.448733  	1.187333  	-0.326050 
74.785714 	0.343668  	1.243469  	-0.336770 
79.857143 	0.231742  	1.281828  	-0.347278 
84.928571 	0.116057  	1.300957  	-0.353400 
90.000000 	0.000000  	1.300000  	-0.359394 
95.071429 	-0.081240 	1.300957  	-0.364470 
100.142857	-0.162219 	1.281828  	-0.369337 
105.214286	-0.240568 	1.243469  	-0.366979 
110.285714	-0.314113 	1.187333  	-0.364283 
115.357143	-0.380967 	1.115423  	-0.355929 
120.428571	-0.439609 	1.030227  	-0.347278 
125.500000	-0.488982 	0.934639  	-0.335418 
130.571429	-0.528590 	0.831865  	-0.323566 
135.642857	-0.558636 	0.725322  	-0.311781 
140.714286	-0.580221 	0.618531  	-0.300819 
145.785714	-0.595688 	0.515003  	-0.294874 
150.857143	-0.609318 	0.418131  	-0.292473 
155.928571	-0.628885 	0.331080  	-0.307490 
161.000000	-0.669745 	0.256686  	-0.337592 
162.357143	-0.621906 	0.239246  	-0.362082 
163.714286	-0.574067 	0.222930  	-0.386572 
165.071429	-0.526229 	0.207775  	-0.411062 
166.428571	-0.478390 	0.193816  	-0.435552 
167.785714	-0.430551 	0.181087  	-0.460042 
169.142857	-0.382712 	0.169617  	-0.484533 
170.500000	-0.334873 	0.159432  	-0.475000 
171.857143	-0.287034 	0.150557  	-0.407143 
173.214286	-0.239195 	0.143012  	-0.339286 
174.571429	-0.191356 	0.136815  	-0.271429 
175.928571	-0.143517 	0.131980  	-0.203571 
177.285714	-0.095678 	0.128518  	-0.135714 
178.642857	-0.047839 	0.126438  	-0.067857 
180.000000	0.000000  	0.125744  	0.000000  
