AeroDyn airfoil file.
 
Compatible with AeroDyn v13.0.
Generated by airfoilprep.py
1         		Number of airfoil tables in this file   
0.010000  	Reynolds number in millions.            
0.000000  	Control setting                         
8.629715  	Stall angle (deg)                       
-0.366414 	Angle of attack for zero Cn for linear Cn curve (deg)
4.072897  	Cn slope for zero lift for linear Cn curve (1/rad)
0.639494  	Cn at stall value for positive angle of attack for linear Cn curve
-0.245450 	Cn at stall value for negative angle of attack for linear Cn curve
0.000000  	Angle of attack for minimum CD (deg)    
0.043496  	Minimum CD value                        
-180.000000	0.000000  	0.129524  	0.000000  
-178.642857	0.051938  	0.130217  	0.054286  
-177.285714	0.103877  	0.132294  	0.108571  
-175.928571	0.155815  	0.135750  	0.162857  
-174.571429	0.207754  	0.140578  	0.217143  
-173.214286	0.259692  	0.146766  	0.271429  
-171.857143	0.311631  	0.154299  	0.325714  
-170.500000	0.363569  	0.163161  	0.380000  
-169.142857	0.415508  	0.173329  	0.393665  
-167.785714	0.467446  	0.184782  	0.383635  
-166.428571	0.519384  	0.197491  	0.373604  
-165.071429	0.571323  	0.211427  	0.363574  
-163.714286	0.623261  	0.226558  	0.353544  
-162.357143	0.675200  	0.242849  	0.343514  
-161.000000	0.727138  	0.260260  	0.333483  
-155.928571	0.671603  	0.334531  	0.311511  
-150.857143	0.642057  	0.421433  	0.293348  
-145.785714	0.621106  	0.518129  	0.294013  
-140.714286	0.599995  	0.621456  	0.298507  
-135.642857	0.573919  	0.728024  	0.308713  
-130.571429	0.540230  	0.834323  	0.319856  
-125.500000	0.497639  	0.936834  	0.331529  
-120.428571	0.445827  	1.032142  	0.343269  
-115.357143	0.385209  	1.117042  	0.352141  
-110.285714	0.316791  	1.188643  	0.360748  
-105.214286	0.242059  	1.244461  	0.363928  
-100.142857	0.162878  	1.282494  	0.366785  
-95.071429	0.081404  	1.301291  	0.362530  
-90.000000	0.000000  	1.300000  	0.358069  
-84.928571	-0.081404 	1.301291  	0.351431  
-79.857143	-0.162878 	1.282494  	0.344600  
-74.785714	-0.242059 	1.244461  	0.331077  
-69.714286	-0.316791 	1.188643  	0.317282  
-64.642857	-0.385209 	1.117042  	0.298910  
-59.571429	-0.445827 	1.032142  	0.280333  
-54.500000	-0.497639 	0.936834  	0.259545  
-49.428571	-0.540230 	0.834323  	0.238749  
-44.357143	-0.573919 	0.728024  	0.217884  
-39.285714	-0.599995 	0.621456  	0.197233  
-34.214286	-0.621106 	0.518129  	0.177875  
-29.142857	-0.642057 	0.421433  	0.158513  
-24.071429	-0.671603 	0.334531  	0.139122  
-19.000000	-0.727138 	0.260260  	0.071073  
-18.928571	-0.704531 	0.257140  	0.067324  
-18.857143	-0.681924 	0.254020  	0.063575  
-18.785714	-0.659317 	0.250899  	0.059826  
-18.714286	-0.636710 	0.247779  	0.056078  
-18.642857	-0.614102 	0.244659  	0.052329  
-18.571429	-0.591495 	0.241539  	0.048580  
-18.500000	-0.568888 	0.238418  	0.044831  
-18.428571	-0.546281 	0.235298  	0.041083  
-18.357143	-0.523674 	0.232178  	0.037334  
-18.285714	-0.501067 	0.229057  	0.033585  
-18.214286	-0.478460 	0.225937  	0.029836  
-18.142857	-0.455853 	0.222817  	0.026088  
-18.000000	-0.410638 	0.216576  	0.018590  
-17.000000	-0.386421 	0.206042  	0.016664  
-16.000000	-0.357670 	0.194841  	0.015147  
-15.000000	-0.314227 	0.180792  	0.011980  
-14.000000	-0.199633 	0.150775  	-0.009654 
-13.000000	-0.174576 	0.141650  	-0.013329 
-12.000000	-0.149043 	0.132008  	-0.016884 
-11.000000	-0.122379 	0.121838  	-0.020425 
-10.000000	-0.093961 	0.111291  	-0.024047 
-9.000000 	-0.063735 	0.100662  	-0.027763 
-8.000000 	-0.032618 	0.090274  	-0.031441 
-7.000000 	-0.002643 	0.080412  	-0.034789 
-6.000000 	-0.009742 	0.074430  	-0.029665 
-5.000000 	-0.096836 	0.074080  	-0.009684 
-4.000000 	-0.174225 	0.071157  	0.005787  
-3.000000 	-0.267955 	0.067216  	0.022851  
-2.000000 	-0.318314 	0.059406  	0.030425  
-1.000000 	-0.219428 	0.047789  	0.014434  
0.000000  	-0.023709 	0.043496  	-0.029582 
1.000000  	0.128670  	0.047193  	-0.051994 
2.000000  	0.215513  	0.051453  	-0.055444 
3.000000  	0.286414  	0.056353  	-0.056373 
4.000000  	0.350557  	0.062106  	-0.057199 
5.000000  	0.409342  	0.068808  	-0.058326 
6.000000  	0.463083  	0.076552  	-0.059912 
7.000000  	0.511927  	0.085440  	-0.062073 
8.000000  	0.555844  	0.095521  	-0.064883 
9.000000  	0.595268  	0.106789  	-0.068426 
10.000000 	0.631226  	0.119131  	-0.072795 
11.000000 	0.665172  	0.132364  	-0.078075 
12.000000 	0.698509  	0.146295  	-0.084287 
13.000000 	0.732353  	0.160745  	-0.091310 
14.000000 	0.767398  	0.175547  	-0.098925 
15.000000 	0.803724  	0.190603  	-0.106919 
16.000000 	0.894451  	0.216576  	-0.127585 
17.000000 	0.946577  	0.231173  	-0.136532 
18.000000 	0.995021  	0.246510  	-0.144177 
19.000000 	1.038769  	0.260260  	-0.150898 
24.071429 	0.959433  	0.334531  	-0.175386 
29.142857 	0.917225  	0.421433  	-0.197563 
34.214286 	0.887295  	0.518129  	-0.216643 
39.285714 	0.857136  	0.621456  	-0.235092 
44.357143 	0.819885  	0.728024  	-0.252652 
49.428571 	0.771757  	0.834323  	-0.270065 
54.500000 	0.710913  	0.936834  	-0.286001 
59.571429 	0.636895  	1.032142  	-0.301748 
64.642857 	0.550298  	1.117042  	-0.315100 
69.714286 	0.452559  	1.188643  	-0.328231 
74.785714 	0.345799  	1.244461  	-0.338014 
79.857143 	0.232683  	1.282494  	-0.347597 
84.928571 	0.116291  	1.301291  	-0.352895 
90.000000 	0.000000  	1.300000  	-0.358069 
95.071429 	-0.081404 	1.301291  	-0.362530 
100.142857	-0.162878 	1.282494  	-0.366785 
105.214286	-0.242059 	1.244461  	-0.363928 
110.285714	-0.316791 	1.188643  	-0.360748 
115.357143	-0.385209 	1.117042  	-0.352141 
120.428571	-0.445827 	1.032142  	-0.343269 
125.500000	-0.497639 	0.936834  	-0.331529 
130.571429	-0.540230 	0.834323  	-0.319856 
135.642857	-0.573919 	0.728024  	-0.308713 
140.714286	-0.599995 	0.621456  	-0.298507 
145.785714	-0.621106 	0.518129  	-0.294013 
150.857143	-0.642057 	0.421433  	-0.293348 
155.928571	-0.671603 	0.334531  	-0.311511 
161.000000	-0.727138 	0.260260  	-0.343483 
162.357143	-0.675200 	0.242849  	-0.367085 
163.714286	-0.623261 	0.226558  	-0.390687 
165.071429	-0.571323 	0.211427  	-0.414288 
166.428571	-0.519384 	0.197491  	-0.437890 
167.785714	-0.467446 	0.184782  	-0.461492 
169.142857	-0.415508 	0.173329  	-0.485094 
170.500000	-0.363569 	0.163161  	-0.475000 
171.857143	-0.311631 	0.154299  	-0.407143 
173.214286	-0.259692 	0.146766  	-0.339286 
174.571429	-0.207754 	0.140578  	-0.271429 
175.928571	-0.155815 	0.135750  	-0.203571 
177.285714	-0.103877 	0.132294  	-0.135714 
178.642857	-0.051938 	0.130217  	-0.067857 
180.000000	0.000000  	0.129524  	0.000000  
