AeroDyn airfoil file.
 
Compatible with AeroDyn v13.0.
Generated by airfoilprep.py
1         		Number of airfoil tables in this file   
0.010000  	Reynolds number in millions.            
0.000000  	Control setting                         
0.000000  	Stall angle (deg)                       
0.058211  	Angle of attack for zero Cn for linear Cn curve (deg)
2.790577  	Cn slope for zero lift for linear Cn curve (1/rad)
-0.002835 	Cn at stall value for positive angle of attack for linear Cn curve
0.240689  	Cn at stall value for negative angle of attack for linear Cn curve
-0.034907 	Angle of attack for minimum CD (deg)    
0.047351  	Minimum CD value                        
-180.000000	0.000000  	0.100232  	0.000000  
-178.642857	0.037936  	0.100933  	0.054286  
-177.285714	0.075873  	0.103034  	0.108571  
-175.928571	0.113809  	0.106532  	0.162857  
-174.571429	0.151745  	0.111417  	0.217143  
-173.214286	0.189681  	0.117679  	0.271429  
-171.857143	0.227618  	0.125302  	0.325714  
-170.500000	0.265554  	0.134270  	0.380000  
-169.142857	0.303490  	0.144561  	0.389226  
-167.785714	0.341427  	0.156152  	0.372167  
-166.428571	0.379363  	0.169016  	0.355107  
-165.071429	0.417299  	0.183123  	0.338048  
-163.714286	0.455236  	0.198441  	0.320989  
-162.357143	0.493172  	0.214934  	0.303930  
-161.000000	0.531108  	0.232564  	0.286871  
-155.928571	0.525697  	0.307786  	0.270739  
-150.857143	0.530232  	0.395849  	0.266302  
-145.785714	0.534288  	0.493906  	0.274291  
-140.714286	0.532454  	0.598784  	0.284808  
-135.642857	0.521719  	0.707080  	0.298311  
-130.571429	0.500474  	0.815272  	0.312304  
-125.500000	0.468070  	0.919824  	0.325199  
-120.428571	0.424590  	1.017306  	0.337955  
-115.357143	0.370720  	1.104497  	0.346726  
-110.285714	0.307643  	1.178488  	0.355130  
-105.214286	0.236964  	1.236774  	0.357368  
-100.142857	0.160629  	1.277335  	0.359238  
-95.071429	0.080844  	1.298702  	0.353625  
-90.000000	0.000000  	1.300000  	0.347794  
-85.000000	-0.079707 	1.298861  	0.338584  
-80.000000	-0.158418 	1.278205  	0.329374  
-75.000000	-0.233839 	1.238858  	0.313323  
-70.000000	-0.303846 	1.182210  	0.297272  
-65.000000	-0.366562 	1.110172  	0.276328  
-60.000000	-0.420426 	1.025116  	0.255384  
-55.000000	-0.464268 	0.929804  	0.231826  
-50.000000	-0.497385 	0.827299  	0.208269  
-45.000000	-0.519629 	0.720874  	0.184171  
-40.000000	-0.531530 	0.613911  	0.160073  
-35.000000	-0.534486 	0.509792  	0.136546  
-30.000000	-0.531141 	0.411803  	0.113019  
-25.000000	-0.526193 	0.323029  	0.056510  
-20.000000	-0.696166 	0.254587  	0.025089  
-19.000000	-0.660214 	0.240084  	0.021549  
-18.000000	-0.621613 	0.225965  	0.018690  
-17.000000	-0.561261 	0.208842  	0.015356  
-16.000000	-0.458249 	0.186916  	-0.000586 
-15.000000	-0.383813 	0.166465  	-0.016299 
-14.000000	-0.348545 	0.155214  	-0.021316 
-13.000000	-0.313851 	0.143991  	-0.025951 
-12.000000	-0.279993 	0.132793  	-0.030198 
-11.000000	-0.247194 	0.121635  	-0.034064 
-10.000000	-0.215625 	0.110575  	-0.037572 
-9.000000 	-0.185419 	0.099740  	-0.040754 
-8.000000 	-0.156816 	0.089314  	-0.043617 
-7.000000 	-0.210876 	0.087053  	-0.026825 
-6.000000 	-0.230629 	0.079159  	-0.020250 
-5.000000 	-0.216367 	0.069585  	-0.020326 
-4.000000 	-0.090930 	0.056603  	-0.045491 
-3.000000 	-0.110537 	0.051183  	-0.040546 
-2.000000 	-0.176978 	0.047351  	-0.027170 
-1.000000 	-0.140464 	0.047666  	-0.024217 
0.000000  	-0.061881 	0.050216  	-0.024129 
1.000000  	0.015807  	0.053282  	-0.022453 
2.000000  	0.086786  	0.056393  	-0.019045 
3.000000  	0.152636  	0.059390  	-0.014370 
4.000000  	0.217857  	0.062111  	-0.008841 
5.000000  	0.292728  	0.064009  	-0.002751 
6.000000  	0.370414  	0.066269  	0.002330  
7.000000  	0.659980  	0.087721  	-0.039321 
8.000000  	0.650098  	0.103017  	-0.036457 
9.000000  	0.630688  	0.118823  	-0.035684 
10.000000 	0.606281  	0.133209  	-0.036051 
11.000000 	0.537311  	0.142482  	-0.035512 
12.000000 	0.444509  	0.138137  	-0.015035 
13.000000 	0.476219  	0.149058  	-0.018799 
14.000000 	0.518741  	0.162423  	-0.025548 
15.000000 	0.568114  	0.177350  	-0.034358 
16.000000 	0.618616  	0.191728  	-0.043594 
17.000000 	0.666113  	0.206515  	-0.052191 
18.000000 	0.710546  	0.217970  	-0.060075 
19.000000 	0.758726  	0.232564  	-0.068800 
24.071429 	0.750995  	0.307786  	-0.102676 
29.142857 	0.757474  	0.395849  	-0.134377 
34.214286 	0.763268  	0.493906  	-0.160857 
39.285714 	0.760648  	0.598784  	-0.186274 
44.357143 	0.745313  	0.707080  	-0.209432 
49.428571 	0.714963  	0.815272  	-0.232219 
54.500000 	0.668671  	0.919824  	-0.252580 
59.571429 	0.606558  	1.017306  	-0.272634 
64.642857 	0.529599  	1.104497  	-0.289600 
69.714286 	0.439490  	1.178488  	-0.306282 
74.785714 	0.338520  	1.236774  	-0.319137 
79.857143 	0.229470  	1.277335  	-0.331763 
84.928571 	0.115491  	1.298702  	-0.339844 
90.000000 	0.000000  	1.300000  	-0.347794 
95.071429 	-0.080844 	1.298702  	-0.353625 
100.142857	-0.160629 	1.277335  	-0.359238 
105.214286	-0.236964 	1.236774  	-0.357368 
110.285714	-0.307643 	1.178488  	-0.355130 
115.357143	-0.370720 	1.104497  	-0.346726 
120.428571	-0.424590 	1.017306  	-0.337955 
125.500000	-0.468070 	0.919824  	-0.325199 
130.571429	-0.500474 	0.815272  	-0.312304 
135.642857	-0.521719 	0.707080  	-0.298311 
140.714286	-0.532454 	0.598784  	-0.284808 
145.785714	-0.534288 	0.493906  	-0.274291 
150.857143	-0.530232 	0.395849  	-0.266302 
155.928571	-0.525697 	0.307786  	-0.270739 
161.000000	-0.531108 	0.232564  	-0.296871 
162.357143	-0.493172 	0.214934  	-0.327501 
163.714286	-0.455236 	0.198441  	-0.358132 
165.071429	-0.417299 	0.183123  	-0.388763 
166.428571	-0.379363 	0.169016  	-0.419393 
167.785714	-0.341427 	0.156152  	-0.450024 
169.142857	-0.303490 	0.144561  	-0.480654 
170.500000	-0.265554 	0.134270  	-0.475000 
171.857143	-0.227618 	0.125302  	-0.407143 
173.214286	-0.189681 	0.117679  	-0.339286 
174.571429	-0.151745 	0.111417  	-0.271429 
175.928571	-0.113809 	0.106532  	-0.203571 
177.285714	-0.075873 	0.103034  	-0.135714 
178.642857	-0.037936 	0.100933  	-0.067857 
180.000000	0.000000  	0.100232  	0.000000  
