AeroDyn airfoil file.
 
Compatible with AeroDyn v13.0.
Generated by airfoilprep.py
1         		Number of airfoil tables in this file   
0.010000  	Reynolds number in millions.            
0.000000  	Control setting                         
0.000000  	Stall angle (deg)                       
0.335718  	Angle of attack for zero Cn for linear Cn curve (deg)
2.313400  	Cn slope for zero lift for linear Cn curve (1/rad)
-0.013555 	Cn at stall value for positive angle of attack for linear Cn curve
0.188327  	Cn at stall value for negative angle of attack for linear Cn curve
-0.017453 	Angle of attack for minimum CD (deg)    
0.047402  	Minimum CD value                        
-180.000000	0.000000  	0.101480  	0.000000  
-178.642857	0.039539  	0.102180  	0.054286  
-177.285714	0.079079  	0.104281  	0.108571  
-175.928571	0.118618  	0.107777  	0.162857  
-174.571429	0.158157  	0.112660  	0.217143  
-173.214286	0.197696  	0.118918  	0.271429  
-171.857143	0.237236  	0.126538  	0.325714  
-170.500000	0.276775  	0.135501  	0.380000  
-169.142857	0.316314  	0.145787  	0.388931  
-167.785714	0.355853  	0.157372  	0.371404  
-166.428571	0.395393  	0.170229  	0.353878  
-165.071429	0.434932  	0.184329  	0.336351  
-163.714286	0.474471  	0.199639  	0.318825  
-162.357143	0.514010  	0.216123  	0.301298  
-161.000000	0.553550  	0.233744  	0.283772  
-155.928571	0.542400  	0.308926  	0.266715  
-150.857143	0.543034  	0.396939  	0.261554  
-145.785714	0.544227  	0.494938  	0.269184  
-140.714286	0.540186  	0.599750  	0.279415  
-135.642857	0.527695  	0.707973  	0.292905  
-130.571429	0.505025  	0.816083  	0.306930  
-125.500000	0.471455  	0.920549  	0.320093  
-120.428571	0.427021  	1.017938  	0.333146  
-115.357143	0.372378  	1.105032  	0.342417  
-110.285714	0.308690  	1.178920  	0.351339  
-105.214286	0.237548  	1.237101  	0.354244  
-100.142857	0.160886  	1.277555  	0.356790  
-95.071429	0.080908  	1.298812  	0.351925  
-90.000000	0.000000  	1.300000  	0.346846  
-84.928571	-0.080908 	1.298812  	0.338288  
-79.857143	-0.160886 	1.277555  	0.329534  
-74.785714	-0.237548 	1.237101  	0.314033  
-69.714286	-0.308690 	1.178920  	0.298251  
-64.642857	-0.372378 	1.105032  	0.277765  
-59.571429	-0.427021 	1.017938  	0.257054  
-54.500000	-0.471455 	0.920549  	0.233905  
-49.428571	-0.505025 	0.816083  	0.210699  
-44.357143	-0.527695 	0.707973  	0.187043  
-39.285714	-0.540186 	0.599750  	0.163497  
-34.214286	-0.544227 	0.494938  	0.140622  
-29.142857	-0.543034 	0.396939  	0.117565  
-24.071429	-0.542400 	0.308926  	0.093617  
-19.000000	-0.674549 	0.248501  	0.024306  
-18.000000	-0.641830 	0.236079  	0.020958  
-17.000000	-0.600946 	0.220553  	0.017797  
-16.000000	-0.548563 	0.204590  	0.015063  
-15.000000	-0.407946 	0.173522  	-0.009069 
-14.000000	-0.360809 	0.159225  	-0.017430 
-13.000000	-0.324942 	0.147558  	-0.022478 
-12.000000	-0.289856 	0.135937  	-0.027157 
-11.000000	-0.255796 	0.124373  	-0.031473 
-10.000000	-0.223001 	0.112910  	-0.035457 
-9.000000 	-0.191756 	0.101635  	-0.039160 
-8.000000 	-0.162604 	0.090661  	-0.042652 
-7.000000 	-0.136455 	0.080185  	-0.045931 
-6.000000 	-0.113702 	0.070731  	-0.048607 
-5.000000 	-0.094407 	0.063002  	-0.049731 
-4.000000 	-0.084105 	0.057193  	-0.048149 
-3.000000 	-0.099909 	0.053424  	-0.041728 
-2.000000 	-0.156383 	0.050674  	-0.028943 
-1.000000 	-0.198508 	0.047402  	-0.018181 
0.000000  	-0.135002 	0.048098  	-0.019637 
1.000000  	-0.047496 	0.050594  	-0.021757 
2.000000  	0.038873  	0.053581  	-0.021918 
3.000000  	0.122338  	0.056549  	-0.020216 
4.000000  	0.207630  	0.059033  	-0.017055 
5.000000  	0.298593  	0.060938  	-0.013230 
6.000000  	0.377280  	0.064450  	-0.010765 
7.000000  	0.636642  	0.087358  	-0.051183 
8.000000  	0.639164  	0.102589  	-0.050360 
9.000000  	0.637736  	0.118389  	-0.051425 
10.000000 	0.613746  	0.132562  	-0.052767 
11.000000 	0.449913  	0.128069  	-0.030516 
12.000000 	0.482622  	0.139603  	-0.034253 
13.000000 	0.516709  	0.151122  	-0.038394 
14.000000 	0.551841  	0.162705  	-0.042980 
15.000000 	0.590195  	0.174564  	-0.048754 
16.000000 	0.648889  	0.192967  	-0.060098 
17.000000 	0.699267  	0.208461  	-0.069462 
18.000000 	0.744770  	0.219937  	-0.077638 
19.000000 	0.790785  	0.233744  	-0.085965 
24.071429 	0.774857  	0.308926  	-0.117180 
29.142857 	0.775763  	0.396939  	-0.146380 
34.214286 	0.777467  	0.494938  	-0.171168 
39.285714 	0.771694  	0.599750  	-0.195058 
44.357143 	0.753850  	0.707973  	-0.216981 
49.428571 	0.721465  	0.816083  	-0.238582 
54.500000 	0.673507  	0.920549  	-0.257902 
59.571429 	0.610031  	1.017938  	-0.276933 
64.642857 	0.531969  	1.105032  	-0.292964 
69.714286 	0.440986  	1.178920  	-0.308719 
74.785714 	0.339354  	1.237101  	-0.320706 
79.857143 	0.229838  	1.277555  	-0.332467 
84.928571 	0.115583  	1.298812  	-0.339722 
90.000000 	0.000000  	1.300000  	-0.346846 
95.071429 	-0.080908 	1.298812  	-0.351925 
100.142857	-0.160886 	1.277555  	-0.356790 
105.214286	-0.237548 	1.237101  	-0.354244 
110.285714	-0.308690 	1.178920  	-0.351339 
115.357143	-0.372378 	1.105032  	-0.342417 
120.428571	-0.427021 	1.017938  	-0.333146 
125.500000	-0.471455 	0.920549  	-0.320093 
130.571429	-0.505025 	0.816083  	-0.306930 
135.642857	-0.527695 	0.707973  	-0.292905 
140.714286	-0.540186 	0.599750  	-0.279415 
145.785714	-0.544227 	0.494938  	-0.269184 
150.857143	-0.543034 	0.396939  	-0.261554 
155.928571	-0.542400 	0.308926  	-0.266715 
161.000000	-0.553550 	0.233744  	-0.293772 
162.357143	-0.514010 	0.216123  	-0.324870 
163.714286	-0.474471 	0.199639  	-0.355968 
165.071429	-0.434932 	0.184329  	-0.387065 
166.428571	-0.395393 	0.170229  	-0.418163 
167.785714	-0.355853 	0.157372  	-0.449261 
169.142857	-0.316314 	0.145787  	-0.480359 
170.500000	-0.276775 	0.135501  	-0.475000 
171.857143	-0.237236 	0.126538  	-0.407143 
173.214286	-0.197696 	0.118918  	-0.339286 
174.571429	-0.158157 	0.112660  	-0.271429 
175.928571	-0.118618 	0.107777  	-0.203571 
177.285714	-0.079079 	0.104281  	-0.135714 
178.642857	-0.039539 	0.102180  	-0.067857 
180.000000	0.000000  	0.101480  	0.000000  
