AeroDyn airfoil file.
 
Compatible with AeroDyn v13.0.
Generated by airfoilprep.py
1         		Number of airfoil tables in this file   
0.010000  	Reynolds number in millions.            
0.000000  	Control setting                         
0.000000  	Stall angle (deg)                       
-0.995358 	Angle of attack for zero Cn for linear Cn curve (deg)
2.935584  	Cn slope for zero lift for linear Cn curve (1/rad)
0.050998  	Cn at stall value for positive angle of attack for linear Cn curve
0.307176  	Cn at stall value for negative angle of attack for linear Cn curve
-0.017453 	Angle of attack for minimum CD (deg)    
0.041428  	Minimum CD value                        
-180.000000	0.000000  	0.122727  	0.000000  
-178.642857	0.046600  	0.123422  	0.054286  
-177.285714	0.093199  	0.125505  	0.108571  
-175.928571	0.139799  	0.128971  	0.162857  
-174.571429	0.186399  	0.133812  	0.217143  
-173.214286	0.232998  	0.140017  	0.271429  
-171.857143	0.279598  	0.147571  	0.325714  
-170.500000	0.326197  	0.156457  	0.380000  
-169.142857	0.372797  	0.166654  	0.392575  
-167.785714	0.419397  	0.178138  	0.380819  
-166.428571	0.465996  	0.190884  	0.369062  
-165.071429	0.512596  	0.204860  	0.357306  
-163.714286	0.559196  	0.220034  	0.345550  
-162.357143	0.605795  	0.236371  	0.333793  
-161.000000	0.652395  	0.253834  	0.322037  
-155.928571	0.615971  	0.328325  	0.302390  
-150.857143	0.599420  	0.415496  	0.288709  
-145.785714	0.588004  	0.512508  	0.291825  
-140.714286	0.574243  	0.616195  	0.298357  
-135.642857	0.554016  	0.723165  	0.309660  
-130.571429	0.525072  	0.829902  	0.321745  
-125.500000	0.486365  	0.932887  	0.333759  
-120.428571	0.437730  	1.028700  	0.345764  
-115.357143	0.379684  	1.114131  	0.354470  
-110.285714	0.313303  	1.186287  	0.362872  
-105.214286	0.240117  	1.242677  	0.365558  
-100.142857	0.162020  	1.281297  	0.367904  
-95.071429	0.081190  	1.300690  	0.362995  
-90.000000	0.000000  	1.300000  	0.357876  
-84.928571	-0.081190 	1.300690  	0.350249  
-79.857143	-0.162020 	1.281297  	0.342426  
-74.785714	-0.240117 	1.242677  	0.327876  
-69.714286	-0.313303 	1.186287  	0.313048  
-64.642857	-0.379684 	1.114131  	0.293574  
-59.571429	-0.437730 	1.028700  	0.273885  
-54.500000	-0.486365 	0.932887  	0.251858  
-49.428571	-0.525072 	0.829902  	0.229794  
-44.357143	-0.554016 	0.723165  	0.207429  
-39.285714	-0.574243 	0.616195  	0.185203  
-34.214286	-0.588004 	0.512508  	0.163819  
-29.142857	-0.599420 	0.415496  	0.142227  
-24.071429	-0.615971 	0.328325  	0.119608  
-19.000000	-0.723252 	0.248591  	0.060598  
-18.000000	-0.685610 	0.236159  	0.055723  
-17.000000	-0.639086 	0.219894  	0.050746  
-16.000000	-0.587449 	0.203769  	0.046277  
-15.000000	-0.494900 	0.181342  	0.035474  
-14.000000	-0.390680 	0.155624  	0.013407  
-13.000000	-0.348179 	0.143258  	0.006199  
-12.000000	-0.306227 	0.131029  	-0.000686 
-11.000000	-0.265066 	0.118962  	-0.007243 
-10.000000	-0.224866 	0.107113  	-0.013489 
-9.000000 	-0.185685 	0.095586  	-0.019494 
-8.000000 	-0.147628 	0.084541  	-0.025356 
-7.000000 	-0.129455 	0.076160  	-0.026642 
-6.000000 	-0.173591 	0.072751  	-0.015156 
-5.000000 	-0.132700 	0.062228  	-0.022802 
-4.000000 	-0.039166 	0.050922  	-0.043586 
-2.000000 	-0.114467 	0.044109  	-0.027944 
-1.000000 	-0.127778 	0.041428  	-0.023874 
0.000000  	-0.028287 	0.042789  	-0.032023 
1.000000  	0.066250  	0.045259  	-0.034875 
2.000000  	0.148658  	0.048044  	-0.034397 
3.000000  	0.224957  	0.051152  	-0.032792 
4.000000  	0.297721  	0.054662  	-0.030898 
5.000000  	0.367508  	0.058687  	-0.029068 
6.000000  	0.433509  	0.063439  	-0.027585 
7.000000  	0.492160  	0.069543  	-0.027036 
8.000000  	0.521948  	0.080491  	-0.030522 
9.000000  	0.518514  	0.098124  	-0.039505 
10.000000 	0.535311  	0.113839  	-0.046491 
11.000000 	0.560832  	0.128781  	-0.052775 
12.000000 	0.591238  	0.143308  	-0.058922 
13.000000 	0.624818  	0.157532  	-0.065096 
14.000000 	0.660609  	0.171479  	-0.071408 
15.000000 	0.745158  	0.195612  	-0.089600 
16.000000 	0.795186  	0.210256  	-0.098149 
17.000000 	0.845811  	0.226749  	-0.106306 
18.000000 	0.886749  	0.239019  	-0.112570 
19.000000 	0.931993  	0.253834  	-0.119202 
24.071429 	0.879959  	0.328325  	-0.148672 
29.142857 	0.856314  	0.415496  	-0.175703 
34.214286 	0.840005  	0.512508  	-0.198178 
39.285714 	0.820347  	0.616195  	-0.219727 
44.357143 	0.791452  	0.723165  	-0.239652 
49.428571 	0.750102  	0.829902  	-0.259311 
54.500000 	0.694807  	0.932887  	-0.277028 
59.571429 	0.625328  	1.028700  	-0.294499 
64.642857 	0.542406  	1.114131  	-0.309248 
69.714286 	0.447576  	1.186287  	-0.323747 
74.785714 	0.343024  	1.242677  	-0.334675 
79.857143 	0.231458  	1.281297  	-0.345391 
84.928571 	0.115986  	1.300690  	-0.351697 
90.000000 	0.000000  	1.300000  	-0.357876 
95.071429 	-0.081190 	1.300690  	-0.362995 
100.142857	-0.162020 	1.281297  	-0.367904 
105.214286	-0.240117 	1.242677  	-0.365558 
110.285714	-0.313303 	1.186287  	-0.362872 
115.357143	-0.379684 	1.114131  	-0.354470 
120.428571	-0.437730 	1.028700  	-0.345764 
125.500000	-0.486365 	0.932887  	-0.333759 
130.571429	-0.525072 	0.829902  	-0.321745 
135.642857	-0.554016 	0.723165  	-0.309660 
140.714286	-0.574243 	0.616195  	-0.298357 
145.785714	-0.588004 	0.512508  	-0.291825 
150.857143	-0.599420 	0.415496  	-0.288709 
155.928571	-0.615971 	0.328325  	-0.302390 
161.000000	-0.652395 	0.253834  	-0.332037 
162.357143	-0.605795 	0.236371  	-0.357365 
163.714286	-0.559196 	0.220034  	-0.382692 
165.071429	-0.512596 	0.204860  	-0.408020 
166.428571	-0.465996 	0.190884  	-0.433348 
167.785714	-0.419397 	0.178138  	-0.458676 
169.142857	-0.372797 	0.166654  	-0.484004 
170.500000	-0.326197 	0.156457  	-0.475000 
171.857143	-0.279598 	0.147571  	-0.407143 
173.214286	-0.232998 	0.140017  	-0.339286 
174.571429	-0.186399 	0.133812  	-0.271429 
175.928571	-0.139799 	0.128971  	-0.203571 
177.285714	-0.093199 	0.125505  	-0.135714 
178.642857	-0.046600 	0.123422  	-0.067857 
180.000000	0.000000  	0.122727  	0.000000  
