AeroDyn airfoil file.
 
Compatible with AeroDyn v13.0.
Generated by airfoilprep.py
1         		Number of airfoil tables in this file   
0.010000  	Reynolds number in millions.            
0.000000  	Control setting                         
8.712284  	Stall angle (deg)                       
-1.672310 	Angle of attack for zero Cn for linear Cn curve (deg)
3.708840  	Cn slope for zero lift for linear Cn curve (1/rad)
0.672210  	Cn at stall value for positive angle of attack for linear Cn curve
-0.365792 	Cn at stall value for negative angle of attack for linear Cn curve
-0.069813 	Angle of attack for minimum CD (deg)    
0.062561  	Minimum CD value                        
-180.000000	0.000000  	0.088143  	0.000000  
-178.642857	0.025265  	0.088848  	0.054286  
-177.285714	0.050530  	0.090960  	0.108571  
-175.928571	0.075795  	0.094474  	0.162857  
-174.571429	0.101059  	0.099383  	0.217143  
-173.214286	0.126324  	0.105675  	0.271429  
-171.857143	0.151589  	0.113336  	0.325714  
-170.500000	0.176854  	0.122347  	0.380000  
-169.142857	0.202119  	0.132689  	0.388757  
-167.785714	0.227384  	0.144338  	0.370956  
-166.428571	0.252648  	0.157265  	0.353154  
-165.071429	0.277913  	0.171443  	0.335353  
-163.714286	0.303178  	0.186838  	0.317552  
-162.357143	0.328443  	0.203414  	0.299750  
-161.000000	0.353708  	0.221134  	0.281949  
-155.928571	0.393656  	0.296749  	0.277265  
-150.857143	0.429034  	0.385291  	0.287769  
-145.785714	0.455720  	0.483910  	0.302722  
-140.714286	0.471331  	0.589428  	0.318579  
-135.642857	0.474479  	0.698437  	0.333806  
-130.571429	0.464497  	0.807409  	0.348931  
-125.500000	0.441310  	0.912804  	0.360558  
-120.428571	0.405372  	1.011184  	0.371740  
-115.357143	0.357608  	1.099320  	0.377148  
-110.285714	0.299364  	1.174297  	0.382023  
-105.214286	0.232353  	1.233601  	0.379497  
-100.142857	0.158594  	1.275206  	0.376529  
-95.071429	0.080337  	1.297633  	0.365477  
-90.000000	0.000000  	1.300000  	0.354191  
-85.000000	-0.079214 	1.297807  	0.338998  
-80.000000	-0.156440 	1.276106  	0.323805  
-75.000000	-0.229358 	1.235730  	0.301924  
-70.000000	-0.295804 	1.178076  	0.280042  
-65.000000	-0.353831 	1.105063  	0.253632  
-60.000000	-0.401777 	1.019072  	0.227221  
-55.000000	-0.438322 	0.922870  	0.198656  
-50.000000	-0.462540 	0.819529  	0.170091  
-45.000000	-0.473948 	0.712327  	0.141395  
-40.000000	-0.472551 	0.604650  	0.112700  
-35.000000	-0.458908 	0.499890  	0.084885  
-30.000000	-0.434236 	0.401334  	0.057071  
-25.000000	-0.400631 	0.312073  	0.028536  
-20.000000	-0.397746 	0.214688  	-0.010013 
-19.000000	-0.370042 	0.205808  	-0.014420 
-17.000000	-0.290422 	0.180027  	-0.030624 
-16.000000	-0.258093 	0.167500  	-0.037083 
-15.000000	-0.241295 	0.160892  	-0.039618 
-14.000000	-0.225749 	0.153835  	-0.041786 
-13.000000	-0.210770 	0.145958  	-0.043642 
-12.000000	-0.195873 	0.137261  	-0.045200 
-11.000000	-0.180567 	0.127872  	-0.046443 
-10.000000	-0.164782 	0.118114  	-0.047301 
-9.000000 	-0.251207 	0.118409  	-0.025721 
-8.000000 	-0.293517 	0.108906  	-0.017384 
-7.000000 	-0.310968 	0.097700  	-0.012476 
-6.000000 	-0.308183 	0.086924  	-0.009583 
-5.000000 	-0.256284 	0.074543  	-0.016513 
-4.000000 	-0.155614 	0.062561  	-0.037513 
-3.000000 	-0.073388 	0.064392  	-0.034014 
-2.000000 	0.004505  	0.066715  	-0.028895 
-1.000000 	0.072046  	0.068827  	-0.022285 
0.000000  	0.131142  	0.070627  	-0.014732 
1.000000  	0.185147  	0.072212  	-0.006717 
2.000000  	0.236913  	0.073691  	0.001481  
3.000000  	0.289243  	0.075066  	0.009746  
4.000000  	0.351601  	0.075886  	0.017707  
5.000000  	0.404748  	0.079558  	0.022604  
6.000000  	0.727686  	0.094116  	-0.027796 
7.000000  	0.681202  	0.112267  	-0.021858 
8.000000  	0.638823  	0.129045  	-0.017130 
9.000000  	0.595519  	0.144276  	-0.013088 
10.000000 	0.537284  	0.156854  	-0.008271 
11.000000 	0.351815  	0.154934  	0.027927  
12.000000 	0.361278  	0.164230  	0.029244  
13.000000 	0.370824  	0.172633  	0.030655  
14.000000 	0.380263  	0.180033  	0.032149  
15.000000 	0.389468  	0.186352  	0.033708  
16.000000 	0.398430  	0.191534  	0.035288  
17.000000 	0.437095  	0.202566  	0.028442  
18.000000 	0.472719  	0.212594  	0.023138  
19.000000 	0.505297  	0.221134  	0.019259  
24.071429 	0.562366  	0.296749  	-0.020249 
29.142857 	0.612906  	0.385291  	-0.058390 
34.214286 	0.651029  	0.483910  	-0.092245 
39.285714 	0.673330  	0.589428  	-0.125228 
44.357143 	0.677828  	0.698437  	-0.155800 
49.428571 	0.663567  	0.807409  	-0.185977 
54.500000 	0.630443  	0.912804  	-0.213431 
59.571429 	0.579103  	1.011184  	-0.240540 
64.642857 	0.510868  	1.099320  	-0.264237 
69.714286 	0.427663  	1.174297  	-0.287620 
74.785714 	0.331934  	1.233601  	-0.306872 
79.857143 	0.226562  	1.275206  	-0.325878 
84.928571 	0.114767  	1.297633  	-0.340104 
90.000000 	0.000000  	1.300000  	-0.354191 
95.071429 	-0.080337 	1.297633  	-0.365477 
100.142857	-0.158594 	1.275206  	-0.376529 
105.214286	-0.232353 	1.233601  	-0.379497 
110.285714	-0.299364 	1.174297  	-0.382023 
115.357143	-0.357608 	1.099320  	-0.377148 
120.428571	-0.405372 	1.011184  	-0.371740 
125.500000	-0.441310 	0.912804  	-0.360558 
130.571429	-0.464497 	0.807409  	-0.348931 
135.642857	-0.474479 	0.698437  	-0.333806 
140.714286	-0.471331 	0.589428  	-0.318579 
145.785714	-0.455720 	0.483910  	-0.302722 
150.857143	-0.429034 	0.385291  	-0.287769 
155.928571	-0.393656 	0.296749  	-0.277265 
161.000000	-0.353708 	0.221134  	-0.291949 
162.357143	-0.328443 	0.203414  	-0.323322 
163.714286	-0.303178 	0.186838  	-0.354694 
165.071429	-0.277913 	0.171443  	-0.386067 
166.428571	-0.252648 	0.157265  	-0.417440 
167.785714	-0.227384 	0.144338  	-0.448813 
169.142857	-0.202119 	0.132689  	-0.480186 
170.500000	-0.176854 	0.122347  	-0.475000 
171.857143	-0.151589 	0.113336  	-0.407143 
173.214286	-0.126324 	0.105675  	-0.339286 
174.571429	-0.101059 	0.099383  	-0.271429 
175.928571	-0.075795 	0.094474  	-0.203571 
177.285714	-0.050530 	0.090960  	-0.135714 
178.642857	-0.025265 	0.088848  	-0.067857 
180.000000	0.000000  	0.088143  	0.000000  
