AeroDyn airfoil file.
 
Compatible with AeroDyn v13.0.
Generated by airfoilprep.py
1         		Number of airfoil tables in this file   
0.010000  	Reynolds number in millions.            
0.000000  	Control setting                         
9.838880  	Stall angle (deg)                       
-3.779511 	Angle of attack for zero Cn for linear Cn curve (deg)
3.028002  	Cn slope for zero lift for linear Cn curve (1/rad)
0.719713  	Cn at stall value for positive angle of attack for linear Cn curve
-0.358404 	Cn at stall value for negative angle of attack for linear Cn curve
-0.087266 	Angle of attack for minimum CD (deg)    
0.066066  	Minimum CD value                        
-180.000000	0.000000  	0.103632  	0.000000  
-178.642857	0.026461  	0.104332  	0.054286  
-177.285714	0.052923  	0.106431  	0.108571  
-175.928571	0.079384  	0.109924  	0.162857  
-174.571429	0.105845  	0.114802  	0.217143  
-173.214286	0.132307  	0.121055  	0.271429  
-171.857143	0.158768  	0.128668  	0.325714  
-170.500000	0.185229  	0.137623  	0.380000  
-169.142857	0.211690  	0.147901  	0.392151  
-167.785714	0.238152  	0.159475  	0.379725  
-166.428571	0.264613  	0.172322  	0.367298  
-165.071429	0.291074  	0.186409  	0.354871  
-163.714286	0.317536  	0.201705  	0.342444  
-162.357143	0.343997  	0.218174  	0.330017  
-161.000000	0.370458  	0.235779  	0.317590  
-155.928571	0.406124  	0.310891  	0.314224  
-150.857143	0.438589  	0.398818  	0.321437  
-145.785714	0.463139  	0.496718  	0.334531  
-140.714286	0.477102  	0.601416  	0.348821  
-135.642857	0.478940  	0.709512  	0.362776  
-130.571429	0.467894  	0.817483  	0.376676  
-125.500000	0.443837  	0.921799  	0.387067  
-120.428571	0.407187  	1.019028  	0.397012  
-115.357143	0.358846  	1.105953  	0.401083  
-110.285714	0.300146  	1.179667  	0.404612  
-105.214286	0.232789  	1.237666  	0.400653  
-100.142857	0.158786  	1.277934  	0.396247  
-95.071429	0.080385  	1.299002  	0.383740  
-90.000000	0.000000  	1.300000  	0.370999  
-84.928571	-0.080385 	1.299002  	0.354781  
-79.857143	-0.158786 	1.277934  	0.338373  
-74.785714	-0.232789 	1.237666  	0.315370  
-69.714286	-0.300146 	1.179667  	0.292111  
-64.642857	-0.358846 	1.105953  	0.264568  
-59.571429	-0.407187 	1.019028  	0.236848  
-54.500000	-0.443837 	0.921799  	0.207192  
-49.428571	-0.467894 	0.817483  	0.177524  
-44.357143	-0.478940 	0.709512  	0.147760  
-39.285714	-0.477102 	0.601416  	0.118096  
-34.214286	-0.463139 	0.496718  	0.089039  
-29.142857	-0.438589 	0.398818  	0.059656  
-24.071429	-0.406124 	0.310891  	0.028662  
-19.000000	-0.568284 	0.219393  	0.017218  
-18.000000	-0.503809 	0.202132  	0.003613  
-17.000000	-0.440119 	0.181886  	-0.010691 
-16.000000	-0.403336 	0.170621  	-0.017298 
-15.000000	-0.367141 	0.159492  	-0.023492 
-14.000000	-0.331813 	0.148515  	-0.029236 
-13.000000	-0.297748 	0.137686  	-0.034491 
-12.000000	-0.265351 	0.127008  	-0.039212 
-11.000000	-0.237124 	0.116727  	-0.042797 
-10.000000	-0.361228 	0.120462  	-0.018557 
-9.000000 	-0.382302 	0.107229  	-0.017049 
-8.000000 	-0.383665 	0.094018  	-0.016607 
-7.000000 	-0.371281 	0.081974  	-0.016888 
-6.000000 	-0.305229 	0.072194  	-0.025475 
-5.000000 	-0.106378 	0.066066  	-0.049712 
-4.000000 	-0.013446 	0.068568  	-0.046974 
-3.000000 	0.062719  	0.071315  	-0.041450 
-2.000000 	0.122581  	0.073793  	-0.033992 
-1.000000 	0.172168  	0.075948  	-0.025641 
0.000000  	0.216725  	0.077912  	-0.017046 
1.000000  	0.259022  	0.079813  	-0.008462 
2.000000  	0.300341  	0.081721  	0.000048  
3.000000  	0.341845  	0.083643  	0.008514  
4.000000  	0.387234  	0.085370  	0.017056  
5.000000  	0.453558  	0.086003  	0.025034  
6.000000  	0.932883  	0.087566  	-0.026564 
7.000000  	0.855639  	0.109473  	-0.019137 
8.000000  	0.759104  	0.131105  	-0.013214 
9.000000  	0.696714  	0.149264  	-0.010108 
10.000000 	0.642878  	0.164574  	-0.007558 
11.000000 	0.574338  	0.177394  	-0.004540 
12.000000 	0.431740  	0.180355  	0.022405  
13.000000 	0.412264  	0.187659  	0.031681  
14.000000 	0.419447  	0.196335  	0.033081  
15.000000 	0.439887  	0.205848  	0.030539  
16.000000 	0.467161  	0.214669  	0.026122  
17.000000 	0.487930  	0.221882  	0.023841  
18.000000 	0.509736  	0.229464  	0.021739  
19.000000 	0.529226  	0.235779  	0.020713  
24.071429 	0.580177  	0.310891  	-0.022161 
29.142857 	0.626556  	0.398818  	-0.063209 
34.214286 	0.661626  	0.496718  	-0.098682 
39.285714 	0.681575  	0.601416  	-0.133020 
44.357143 	0.684200  	0.709512  	-0.164663 
49.428571 	0.668420  	0.817483  	-0.195864 
54.500000 	0.634053  	0.921799  	-0.224260 
59.571429 	0.581695  	1.019028  	-0.252301 
64.642857 	0.512637  	1.105953  	-0.276892 
69.714286 	0.428779  	1.179667  	-0.301165 
74.785714 	0.332556  	1.237666  	-0.321265 
79.857143 	0.226837  	1.277934  	-0.341116 
84.928571 	0.114836  	1.299002  	-0.356128 
90.000000 	0.000000  	1.300000  	-0.370999 
95.071429 	-0.080385 	1.299002  	-0.383740 
100.142857	-0.158786 	1.277934  	-0.396247 
105.214286	-0.232789 	1.237666  	-0.400653 
110.285714	-0.300146 	1.179667  	-0.404612 
115.357143	-0.358846 	1.105953  	-0.401083 
120.428571	-0.407187 	1.019028  	-0.397012 
125.500000	-0.443837 	0.921799  	-0.387067 
130.571429	-0.467894 	0.817483  	-0.376676 
135.642857	-0.478940 	0.709512  	-0.362776 
140.714286	-0.477102 	0.601416  	-0.348821 
145.785714	-0.463139 	0.496718  	-0.334531 
150.857143	-0.438589 	0.398818  	-0.321437 
155.928571	-0.406124 	0.310891  	-0.314224 
161.000000	-0.370458 	0.235779  	-0.327590 
162.357143	-0.343997 	0.218174  	-0.353589 
163.714286	-0.317536 	0.201705  	-0.379587 
165.071429	-0.291074 	0.186409  	-0.405585 
166.428571	-0.264613 	0.172322  	-0.431583 
167.785714	-0.238152 	0.159475  	-0.457582 
169.142857	-0.211690 	0.147901  	-0.483580 
170.500000	-0.185229 	0.137623  	-0.475000 
171.857143	-0.158768 	0.128668  	-0.407143 
173.214286	-0.132307 	0.121055  	-0.339286 
174.571429	-0.105845 	0.114802  	-0.271429 
175.928571	-0.079384 	0.109924  	-0.203571 
177.285714	-0.052923 	0.106431  	-0.135714 
178.642857	-0.026461 	0.104332  	-0.067857 
180.000000	0.000000  	0.103632  	0.000000  
