AeroDyn airfoil file.
 
Compatible with AeroDyn v13.0.
Generated by airfoilprep.py
1         		Number of airfoil tables in this file   
0.010000  	Reynolds number in millions.            
0.000000  	Control setting                         
0.218517  	Stall angle (deg)                       
-5.005213 	Angle of attack for zero Cn for linear Cn curve (deg)
4.789773  	Cn slope for zero lift for linear Cn curve (1/rad)
0.436690  	Cn at stall value for positive angle of attack for linear Cn curve
0.836409  	Cn at stall value for negative angle of attack for linear Cn curve
-0.122173 	Angle of attack for minimum CD (deg)    
0.075393  	Minimum CD value                        
-180.000000	0.000000  	0.130879  	0.000000  
-178.642857	0.028763  	0.131571  	0.054286  
-177.285714	0.057525  	0.133647  	0.108571  
-175.928571	0.086288  	0.137102  	0.162857  
-174.571429	0.115051  	0.141927  	0.217143  
-173.214286	0.143813  	0.148111  	0.271429  
-171.857143	0.172576  	0.155640  	0.325714  
-170.500000	0.201339  	0.164497  	0.380000  
-169.142857	0.230101  	0.174660  	0.392334  
-167.785714	0.258864  	0.186106  	0.380195  
-166.428571	0.287627  	0.198808  	0.368056  
-165.071429	0.316389  	0.212736  	0.355918  
-163.714286	0.345152  	0.227859  	0.343779  
-162.357143	0.373915  	0.244140  	0.331641  
-161.000000	0.402677  	0.261541  	0.319502  
-155.928571	0.430105  	0.335768  	0.313436  
-150.857143	0.456969  	0.422616  	0.317021  
-145.785714	0.477408  	0.519249  	0.328399  
-140.714286	0.488203  	0.622505  	0.341363  
-135.642857	0.487519  	0.728993  	0.354679  
-130.571429	0.474428  	0.835204  	0.368052  
-125.500000	0.448697  	0.937621  	0.378294  
-120.428571	0.410677  	1.032828  	0.388138  
-115.357143	0.361227  	1.117622  	0.392374  
-110.285714	0.301649  	1.189113  	0.396093  
-105.214286	0.233626  	1.244816  	0.392524  
-100.142857	0.159155  	1.282732  	0.388519  
-95.071429	0.080477  	1.301411  	0.376550  
-90.000000	0.000000  	1.300000  	0.364350  
-84.928571	-0.080477 	1.301411  	0.349871  
-79.857143	-0.159155 	1.282732  	0.335196  
-74.785714	-0.233626 	1.244816  	0.313745  
-69.714286	-0.301649 	1.189113  	0.292021  
-64.642857	-0.361227 	1.117622  	0.265743  
-59.571429	-0.410677 	1.032828  	0.239256  
-54.500000	-0.448697 	0.937621  	0.210513  
-49.428571	-0.474428 	0.835204  	0.181715  
-44.357143	-0.487519 	0.728993  	0.152477  
-39.285714	-0.488203 	0.622505  	0.123273  
-34.214286	-0.477408 	0.519249  	0.094276  
-29.142857	-0.456969 	0.422616  	0.064773  
-24.071429	-0.430105 	0.335768  	0.032788  
-19.000000	-0.402677 	0.261541  	0.005601  
-18.428571	-0.401030 	0.252749  	0.004740  
-17.857143	-0.399382 	0.243958  	0.003878  
-17.285714	-0.397735 	0.235166  	0.003017  
-16.714286	-0.396087 	0.226374  	0.002155  
-16.142857	-0.394440 	0.217582  	0.001294  
-15.571429	-0.392792 	0.208790  	0.000433  
-15.000000	-0.391145 	0.199999  	-0.000429 
-14.428571	-0.389497 	0.191207  	-0.001290 
-13.857143	-0.387850 	0.182415  	-0.002152 
-13.285714	-0.386202 	0.173623  	-0.003013 
-12.714286	-0.384555 	0.164831  	-0.003875 
-12.142857	-0.382907 	0.156040  	-0.004736 
-11.000000	-0.379612 	0.138456  	-0.006459 
-10.000000	-0.410935 	0.121337  	-0.006247 
-9.000000 	-0.408955 	0.104251  	-0.008354 
-8.000000 	-0.397478 	0.089074  	-0.010386 
-7.000000 	-0.192748 	0.075393  	-0.038214 
-6.000000 	-0.067264 	0.076572  	-0.039867 
-5.000000 	0.041600  	0.077632  	-0.039030 
-4.000000 	0.131484  	0.077983  	-0.036203 
-3.000000 	0.206496  	0.077882  	-0.031951 
-2.000000 	0.271481  	0.077814  	-0.026671 
-1.000000 	0.328726  	0.078213  	-0.020410 
0.000000  	0.377605  	0.079395  	-0.012932 
1.000000  	0.417822  	0.081495  	-0.003983 
2.000000  	0.456837  	0.083890  	0.006348  
3.000000  	0.512992  	0.085084  	0.016457  
4.000000  	0.897964  	0.080730  	-0.020071 
5.000000  	0.965063  	0.096220  	-0.022617 
6.000000  	0.918343  	0.118593  	-0.019957 
7.000000  	0.829753  	0.140166  	-0.014794 
8.000000  	0.761859  	0.158599  	-0.011607 
9.000000  	0.704536  	0.174639  	-0.010023 
10.000000 	0.631717  	0.188090  	-0.008253 
11.000000 	0.444119  	0.194341  	0.029030  
12.000000 	0.450277  	0.205088  	0.029956  
13.000000 	0.456219  	0.215212  	0.030940  
14.000000 	0.461755  	0.224677  	0.031985  
15.000000 	0.466716  	0.233399  	0.033095  
16.000000 	0.505414  	0.241346  	0.023850  
17.000000 	0.534176  	0.247696  	0.018502  
18.000000 	0.557836  	0.255471  	0.015414  
19.000000 	0.575253  	0.261541  	0.014479  
24.071429 	0.614435  	0.335768  	-0.029684 
29.142857 	0.652813  	0.422616  	-0.071615 
34.214286 	0.682011  	0.519249  	-0.106790 
39.285714 	0.697433  	0.622505  	-0.140591 
44.357143 	0.696456  	0.728993  	-0.171293 
49.428571 	0.677754  	0.835204  	-0.201487 
54.500000 	0.640996  	0.937621  	-0.228632 
59.571429 	0.586682  	1.032828  	-0.255390 
64.642857 	0.516039  	1.117622  	-0.278511 
69.714286 	0.430927  	1.189113  	-0.301296 
74.785714 	0.333752  	1.244816  	-0.319762 
79.857143 	0.227365  	1.282732  	-0.337970 
84.928571 	0.114967  	1.301411  	-0.351231 
90.000000 	0.000000  	1.300000  	-0.364350 
95.071429 	-0.080477 	1.301411  	-0.376550 
100.142857	-0.159155 	1.282732  	-0.388519 
105.214286	-0.233626 	1.244816  	-0.392524 
110.285714	-0.301649 	1.189113  	-0.396093 
115.357143	-0.361227 	1.117622  	-0.392374 
120.428571	-0.410677 	1.032828  	-0.388138 
125.500000	-0.448697 	0.937621  	-0.378294 
130.571429	-0.474428 	0.835204  	-0.368052 
135.642857	-0.487519 	0.728993  	-0.354679 
140.714286	-0.488203 	0.622505  	-0.341363 
145.785714	-0.477408 	0.519249  	-0.328399 
150.857143	-0.456969 	0.422616  	-0.317021 
155.928571	-0.430105 	0.335768  	-0.313436 
161.000000	-0.402677 	0.261541  	-0.329502 
162.357143	-0.373915 	0.244140  	-0.355212 
163.714286	-0.345152 	0.227859  	-0.380922 
165.071429	-0.316389 	0.212736  	-0.406632 
166.428571	-0.287627 	0.198808  	-0.432342 
167.785714	-0.258864 	0.186106  	-0.458052 
169.142857	-0.230101 	0.174660  	-0.483762 
170.500000	-0.201339 	0.164497  	-0.475000 
171.857143	-0.172576 	0.155640  	-0.407143 
173.214286	-0.143813 	0.148111  	-0.339286 
174.571429	-0.115051 	0.141927  	-0.271429 
175.928571	-0.086288 	0.137102  	-0.203571 
177.285714	-0.057525 	0.133647  	-0.135714 
178.642857	-0.028763 	0.131571  	-0.067857 
180.000000	0.000000  	0.130879  	0.000000  
