AeroDyn airfoil file.
 
Compatible with AeroDyn v13.0.
Generated by airfoilprep.py
1         		Number of airfoil tables in this file   
0.010000  	Reynolds number in millions.            
0.000000  	Control setting                         
0.000000  	Stall angle (deg)                       
0.413707  	Angle of attack for zero Cn for linear Cn curve (deg)
2.486167  	Cn slope for zero lift for linear Cn curve (1/rad)
-0.017951 	Cn at stall value for positive angle of attack for linear Cn curve
0.199008  	Cn at stall value for negative angle of attack for linear Cn curve
-0.017453 	Angle of attack for minimum CD (deg)    
0.047499  	Minimum CD value                        
-180.000000	0.000000  	0.098869  	0.000000  
-178.642857	0.038477  	0.099570  	0.054286  
-177.285714	0.076955  	0.101673  	0.108571  
-175.928571	0.115432  	0.105173  	0.162857  
-174.571429	0.153909  	0.110061  	0.217143  
-173.214286	0.192386  	0.116326  	0.271429  
-171.857143	0.230864  	0.123953  	0.325714  
-170.500000	0.269341  	0.132926  	0.380000  
-169.142857	0.307818  	0.143223  	0.388766  
-167.785714	0.346295  	0.154821  	0.370979  
-166.428571	0.384773  	0.167692  	0.353192  
-165.071429	0.423250  	0.181807  	0.335404  
-163.714286	0.461727  	0.197133  	0.317617  
-162.357143	0.500205  	0.213636  	0.299830  
-161.000000	0.538682  	0.231275  	0.282043  
-155.928571	0.531334  	0.306542  	0.265463  
-150.857143	0.534553  	0.394659  	0.261137  
-145.785714	0.537642  	0.492779  	0.269200  
-140.714286	0.535063  	0.597729  	0.279783  
-135.642857	0.523736  	0.706106  	0.293428  
-130.571429	0.502010  	0.814385  	0.307575  
-125.500000	0.469212  	0.919033  	0.320724  
-120.428571	0.425411  	1.016616  	0.333747  
-115.357143	0.371279  	1.103914  	0.342883  
-110.285714	0.307996  	1.178015  	0.351661  
-105.214286	0.237161  	1.236416  	0.354349  
-100.142857	0.160716  	1.277095  	0.356674  
-95.071429	0.080866  	1.298581  	0.351551  
-90.000000	0.000000  	1.300000  	0.346211  
-84.928571	-0.080866 	1.298581  	0.337273  
-79.857143	-0.160716 	1.277095  	0.328140  
-74.785714	-0.237161 	1.236416  	0.312267  
-69.714286	-0.307996 	1.178015  	0.296113  
-64.642857	-0.371279 	1.103914  	0.275269  
-59.571429	-0.425411 	1.016616  	0.254201  
-54.500000	-0.469212 	0.919033  	0.230704  
-49.428571	-0.502010 	0.814385  	0.207147  
-44.357143	-0.523736 	0.706106  	0.183128  
-39.285714	-0.535063 	0.597729  	0.159208  
-34.214286	-0.537642 	0.492779  	0.135895  
-29.142857	-0.534553 	0.394659  	0.112362  
-24.071429	-0.531334 	0.306542  	0.087750  
-19.000000	-0.675148 	0.247706  	0.023059  
-18.000000	-0.638318 	0.233213  	0.019851  
-17.000000	-0.597348 	0.219041  	0.017560  
-16.000000	-0.517057 	0.197814  	0.010707  
-14.000000	-0.360381 	0.159697  	-0.018905 
-13.000000	-0.325024 	0.148229  	-0.023718 
-12.000000	-0.290384 	0.136790  	-0.028161 
-11.000000	-0.256692 	0.125389  	-0.032236 
-10.000000	-0.224162 	0.114078  	-0.035971 
-9.000000 	-0.193011 	0.102948  	-0.039406 
-8.000000 	-0.163640 	0.092131  	-0.042587 
-7.000000 	-0.168479 	0.085069  	-0.037408 
-6.000000 	-0.198850 	0.079082  	-0.027374 
-5.000000 	-0.157097 	0.067982  	-0.034292 
-4.000000 	-0.087417 	0.057575  	-0.048151 
-3.000000 	-0.105570 	0.053002  	-0.042201 
-2.000000 	-0.172640 	0.049570  	-0.028515 
-1.000000 	-0.187583 	0.047499  	-0.020793 
0.000000  	-0.115908 	0.049086  	-0.021596 
1.000000  	-0.032654 	0.051838  	-0.021835 
2.000000  	0.047418  	0.054878  	-0.020306 
3.000000  	0.123849  	0.057842  	-0.017211 
4.000000  	0.202016  	0.060320  	-0.012898 
5.000000  	0.288627  	0.062032  	-0.008031 
6.000000  	0.367834  	0.064934  	-0.004464 
7.000000  	0.649429  	0.085943  	-0.044779 
8.000000  	0.643633  	0.101745  	-0.043485 
9.000000  	0.625663  	0.117632  	-0.043579 
10.000000 	0.607708  	0.132116  	-0.044813 
12.000000 	0.460341  	0.138188  	-0.025078 
13.000000 	0.493611  	0.149371  	-0.029038 
14.000000 	0.528224  	0.160628  	-0.033512 
15.000000 	0.576072  	0.175906  	-0.041694 
16.000000 	0.627720  	0.190548  	-0.051289 
17.000000 	0.675208  	0.204302  	-0.059933 
18.000000 	0.723128  	0.217503  	-0.068690 
19.000000 	0.769546  	0.231275  	-0.077167 
24.071429 	0.759048  	0.306542  	-0.109457 
29.142857 	0.763647  	0.394659  	-0.139703 
34.214286 	0.768060  	0.492779  	-0.165255 
39.285714 	0.764376  	0.597729  	-0.189853 
44.357143 	0.748194  	0.706106  	-0.212360 
49.428571 	0.717157  	0.814385  	-0.234524 
54.500000 	0.670303  	0.919033  	-0.254336 
59.571429 	0.607730  	1.016616  	-0.273850 
64.642857 	0.530399  	1.103914  	-0.290320 
69.714286 	0.439995  	1.178015  	-0.306509 
74.785714 	0.338802  	1.236416  	-0.318900 
79.857143 	0.229594  	1.277095  	-0.331064 
84.928571 	0.115522  	1.298581  	-0.338703 
90.000000 	0.000000  	1.300000  	-0.346211 
95.071429 	-0.080866 	1.298581  	-0.351551 
100.142857	-0.160716 	1.277095  	-0.356674 
105.214286	-0.237161 	1.236416  	-0.354349 
110.285714	-0.307996 	1.178015  	-0.351661 
115.357143	-0.371279 	1.103914  	-0.342883 
120.428571	-0.425411 	1.016616  	-0.333747 
125.500000	-0.469212 	0.919033  	-0.320724 
130.571429	-0.502010 	0.814385  	-0.307575 
135.642857	-0.523736 	0.706106  	-0.293428 
140.714286	-0.535063 	0.597729  	-0.279783 
145.785714	-0.537642 	0.492779  	-0.269200 
150.857143	-0.534553 	0.394659  	-0.261137 
155.928571	-0.531334 	0.306542  	-0.265463 
161.000000	-0.538682 	0.231275  	-0.292043 
162.357143	-0.500205 	0.213636  	-0.323401 
163.714286	-0.461727 	0.197133  	-0.354760 
165.071429	-0.423250 	0.181807  	-0.386119 
166.428571	-0.384773 	0.167692  	-0.417477 
167.785714	-0.346295 	0.154821  	-0.448836 
169.142857	-0.307818 	0.143223  	-0.480195 
170.500000	-0.269341 	0.132926  	-0.475000 
171.857143	-0.230864 	0.123953  	-0.407143 
173.214286	-0.192386 	0.116326  	-0.339286 
174.571429	-0.153909 	0.110061  	-0.271429 
175.928571	-0.115432 	0.105173  	-0.203571 
177.285714	-0.076955 	0.101673  	-0.135714 
178.642857	-0.038477 	0.099570  	-0.067857 
180.000000	0.000000  	0.098869  	0.000000  
