AeroDyn airfoil file.
 
Compatible with AeroDyn v13.0.
Generated by airfoilprep.py
1         		Number of airfoil tables in this file   
0.010000  	Reynolds number in millions.            
0.000000  	Control setting                         
0.000000  	Stall angle (deg)                       
0.077607  	Angle of attack for zero Cn for linear Cn curve (deg)
2.304963  	Cn slope for zero lift for linear Cn curve (1/rad)
-0.003122 	Cn at stall value for positive angle of attack for linear Cn curve
0.198024  	Cn at stall value for negative angle of attack for linear Cn curve
0.000000  	Angle of attack for minimum CD (deg)    
0.046748  	Minimum CD value                        
-180.000000	0.000000  	0.106664  	0.000000  
-178.642857	0.041607  	0.107363  	0.054286  
-177.285714	0.083213  	0.109460  	0.108571  
-175.928571	0.124820  	0.112948  	0.162857  
-174.571429	0.166427  	0.117821  	0.217143  
-173.214286	0.208033  	0.124066  	0.271429  
-171.857143	0.249640  	0.131670  	0.325714  
-170.500000	0.291247  	0.140614  	0.380000  
-169.142857	0.332853  	0.150878  	0.389694  
-167.785714	0.374460  	0.162439  	0.373377  
-166.428571	0.416067  	0.175269  	0.357059  
-165.071429	0.457673  	0.189339  	0.340742  
-163.714286	0.499280  	0.204616  	0.324425  
-162.357143	0.540887  	0.221064  	0.308107  
-161.000000	0.582493  	0.238646  	0.291790  
-155.928571	0.563943  	0.313659  	0.273862  
-150.857143	0.559545  	0.401467  	0.266506  
-145.785714	0.557046  	0.499225  	0.272978  
-140.714286	0.550158  	0.603763  	0.282262  
-135.642857	0.535402  	0.711680  	0.295229  
-130.571429	0.510895  	0.819455  	0.308800  
-125.500000	0.475821  	0.923559  	0.321755  
-120.428571	0.430157  	1.020564  	0.334632  
-115.357143	0.374518  	1.107252  	0.343891  
-110.285714	0.310041  	1.180718  	0.352815  
-105.214286	0.238300  	1.238462  	0.355831  
-100.142857	0.161218  	1.278468  	0.358494  
-95.071429	0.080991  	1.299270  	0.353802  
-90.000000	0.000000  	1.300000  	0.348896  
-84.928571	-0.080991 	1.299270  	0.340751  
-79.857143	-0.161218 	1.278468  	0.332411  
-74.785714	-0.238300 	1.238462  	0.317324  
-69.714286	-0.310041 	1.180718  	0.301957  
-64.642857	-0.374518 	1.107252  	0.281893  
-59.571429	-0.430157 	1.020564  	0.261606  
-54.500000	-0.475821 	0.923559  	0.238901  
-49.428571	-0.510895 	0.819455  	0.216144  
-44.357143	-0.535402 	0.711680  	0.192981  
-39.285714	-0.550158 	0.603763  	0.169941  
-34.214286	-0.557046 	0.499225  	0.147654  
-29.142857	-0.559545 	0.401467  	0.125207  
-24.071429	-0.563943 	0.313659  	0.101978  
-19.000000	-0.675998 	0.245208  	0.027451  
-18.000000	-0.642162 	0.232774  	0.023631  
-17.000000	-0.603859 	0.218799  	0.020293  
-16.000000	-0.553369 	0.202213  	0.017207  
-15.000000	-0.433776 	0.175745  	0.000511  
-14.000000	-0.358828 	0.155389  	-0.015106 
-13.000000	-0.322007 	0.143828  	-0.020524 
-12.000000	-0.286075 	0.132300  	-0.025576 
-11.000000	-0.251327 	0.120817  	-0.030268 
-10.000000	-0.218068 	0.109423  	-0.034628 
-9.000000 	-0.186581 	0.098212  	-0.038712 
-8.000000 	-0.157200 	0.087373  	-0.042563 
-7.000000 	-0.130152 	0.077279  	-0.046045 
-6.000000 	-0.105405 	0.068513  	-0.048607 
-5.000000 	-0.084413 	0.061459  	-0.049435 
-4.000000 	-0.073094 	0.056178  	-0.047666 
-3.000000 	-0.087473 	0.052840  	-0.041232 
-2.000000 	-0.136611 	0.050394  	-0.029298 
-1.000000 	-0.189607 	0.046789  	-0.017174 
0.000000  	-0.133957 	0.046748  	-0.019124 
1.000000  	-0.041763 	0.049066  	-0.023127 
2.000000  	0.049306  	0.052043  	-0.024805 
3.000000  	0.135681  	0.055145  	-0.024294 
4.000000  	0.220234  	0.058027  	-0.022105 
5.000000  	0.308285  	0.060436  	-0.018931 
6.000000  	0.393239  	0.063526  	-0.016378 
7.000000  	0.621445  	0.087755  	-0.056686 
8.000000  	0.639387  	0.103370  	-0.057699 
9.000000  	0.639213  	0.118570  	-0.058568 
10.000000 	0.634692  	0.133279  	-0.060921 
11.000000 	0.481042  	0.128941  	-0.039163 
12.000000 	0.514654  	0.141090  	-0.043422 
13.000000 	0.549584  	0.153225  	-0.048043 
14.000000 	0.585403  	0.165423  	-0.053050 
15.000000 	0.631341  	0.180423  	-0.060959 
16.000000 	0.686428  	0.196846  	-0.071566 
17.000000 	0.738108  	0.211228  	-0.081169 
18.000000 	0.784097  	0.224737  	-0.089368 
19.000000 	0.832133  	0.238646  	-0.097692 
24.071429 	0.805633  	0.313659  	-0.127830 
29.142857 	0.799350  	0.401467  	-0.155894 
34.214286 	0.795779  	0.499225  	-0.179716 
39.285714 	0.785941  	0.603763  	-0.202675 
44.357143 	0.764860  	0.711680  	-0.223823 
49.428571 	0.729850  	0.819455  	-0.244674 
54.500000 	0.679744  	0.923559  	-0.263363 
59.571429 	0.614510  	1.020564  	-0.281777 
64.642857 	0.535025  	1.107252  	-0.297282 
69.714286 	0.442916  	1.180718  	-0.312517 
74.785714 	0.340428  	1.238462  	-0.324047 
79.857143 	0.230312  	1.278468  	-0.335356 
84.928571 	0.115701  	1.299270  	-0.342191 
90.000000 	0.000000  	1.300000  	-0.348896 
95.071429 	-0.080991 	1.299270  	-0.353802 
100.142857	-0.161218 	1.278468  	-0.358494 
105.214286	-0.238300 	1.238462  	-0.355831 
110.285714	-0.310041 	1.180718  	-0.352815 
115.357143	-0.374518 	1.107252  	-0.343891 
120.428571	-0.430157 	1.020564  	-0.334632 
125.500000	-0.475821 	0.923559  	-0.321755 
130.571429	-0.510895 	0.819455  	-0.308800 
135.642857	-0.535402 	0.711680  	-0.295229 
140.714286	-0.550158 	0.603763  	-0.282262 
145.785714	-0.557046 	0.499225  	-0.272978 
150.857143	-0.559545 	0.401467  	-0.266506 
155.928571	-0.563943 	0.313659  	-0.273862 
161.000000	-0.582493 	0.238646  	-0.301790 
162.357143	-0.540887 	0.221064  	-0.331679 
163.714286	-0.499280 	0.204616  	-0.361568 
165.071429	-0.457673 	0.189339  	-0.391456 
166.428571	-0.416067 	0.175269  	-0.421345 
167.785714	-0.374460 	0.162439  	-0.451234 
169.142857	-0.332853 	0.150878  	-0.481123 
170.500000	-0.291247 	0.140614  	-0.475000 
171.857143	-0.249640 	0.131670  	-0.407143 
173.214286	-0.208033 	0.124066  	-0.339286 
174.571429	-0.166427 	0.117821  	-0.271429 
175.928571	-0.124820 	0.112948  	-0.203571 
177.285714	-0.083213 	0.109460  	-0.135714 
178.642857	-0.041607 	0.107363  	-0.067857 
180.000000	0.000000  	0.106664  	0.000000  
