AeroDyn airfoil file.
 
Compatible with AeroDyn v13.0.
Generated by airfoilprep.py
1         		Number of airfoil tables in this file   
0.010000  	Reynolds number in millions.            
0.000000  	Control setting                         
5.415166  	Stall angle (deg)                       
-1.343813 	Angle of attack for zero Cn for linear Cn curve (deg)
3.512529  	Cn slope for zero lift for linear Cn curve (1/rad)
0.414361  	Cn at stall value for positive angle of attack for linear Cn curve
-0.342388 	Cn at stall value for negative angle of attack for linear Cn curve
-0.052360 	Angle of attack for minimum CD (deg)    
0.047898  	Minimum CD value                        
-180.000000	0.000000  	0.093195  	0.000000  
-178.642857	0.034186  	0.093898  	0.054286  
-177.285714	0.068373  	0.096005  	0.108571  
-175.928571	0.102559  	0.099513  	0.162857  
-174.571429	0.136745  	0.104412  	0.217143  
-173.214286	0.170931  	0.110691  	0.271429  
-171.857143	0.205118  	0.118336  	0.325714  
-170.500000	0.239304  	0.127329  	0.380000  
-169.142857	0.273490  	0.137650  	0.391134  
-167.785714	0.307676  	0.149275  	0.377096  
-166.428571	0.341863  	0.162176  	0.363058  
-165.071429	0.376049  	0.176324  	0.349021  
-163.714286	0.410235  	0.191687  	0.334983  
-162.357143	0.444422  	0.208228  	0.320945  
-161.000000	0.478608  	0.225910  	0.306907  
-155.928571	0.486620  	0.301361  	0.294218  
-150.857143	0.500283  	0.389702  	0.291296  
-145.785714	0.511036  	0.488087  	0.299915  
-140.714286	0.514365  	0.593337  	0.310882  
-135.642857	0.507739  	0.702049  	0.324131  
-130.571429	0.489827  	0.810695  	0.337755  
-125.500000	0.460150  	0.915738  	0.349639  
-120.428571	0.418903  	1.013742  	0.361303  
-115.357143	0.366839  	1.101484  	0.368419  
-110.285714	0.305193  	1.176048  	0.375115  
-105.214286	0.235600  	1.234927  	0.375224  
-100.142857	0.160026  	1.276096  	0.374939  
-95.071429	0.080694  	1.298080  	0.366957  
-90.000000	0.000000  	1.300000  	0.358753  
-84.928571	-0.080694 	1.298080  	0.346674  
-79.857143	-0.160026 	1.276096  	0.334403  
-74.785714	-0.235600 	1.234927  	0.315497  
-69.714286	-0.305193 	1.176048  	0.296323  
-64.642857	-0.366839 	1.101484  	0.272671  
-59.571429	-0.418903 	1.013742  	0.248815  
-54.500000	-0.460150 	0.915738  	0.222748  
-49.428571	-0.489827 	0.810695  	0.196631  
-44.357143	-0.507739 	0.702049  	0.170125  
-39.285714	-0.514365 	0.593337  	0.143663  
-34.214286	-0.511036 	0.488087  	0.117469  
-29.142857	-0.500283 	0.389702  	0.090734  
-24.071429	-0.486620 	0.301361  	0.061336  
-19.000000	-0.649692 	0.235222  	0.026863  
-18.000000	-0.576125 	0.215229  	0.022802  
-17.000000	-0.496649 	0.199505  	0.011951  
-16.000000	-0.399425 	0.172555  	-0.009210 
-15.000000	-0.362294 	0.161260  	-0.015231 
-14.000000	-0.326008 	0.150028  	-0.020819 
-13.000000	-0.290891 	0.138850  	-0.025955 
-12.000000	-0.257340 	0.127712  	-0.030622 
-11.000000	-0.225668 	0.116634  	-0.034809 
-10.000000	-0.196079 	0.105695  	-0.038508 
-9.000000 	-0.168589 	0.095077  	-0.041707 
-8.000000 	-0.253368 	0.096186  	-0.019768 
-7.000000 	-0.283626 	0.087281  	-0.013240 
-6.000000 	-0.289078 	0.076729  	-0.010463 
-5.000000 	-0.268103 	0.066818  	-0.011008 
-4.000000 	-0.119082 	0.052741  	-0.041999 
-3.000000 	-0.131358 	0.047898  	-0.035546 
-2.000000 	-0.046109 	0.048841  	-0.035027 
-1.000000 	0.040879  	0.050944  	-0.032624 
0.000000  	0.112834  	0.053214  	-0.027650 
1.000000  	0.172043  	0.055544  	-0.021064 
2.000000  	0.222674  	0.058008  	-0.013732 
3.000000  	0.267652  	0.060708  	-0.006201 
4.000000  	0.308429  	0.063737  	0.001230  
5.000000  	0.345565  	0.067182  	0.008377  
6.000000  	0.379081  	0.071155  	0.015088  
7.000000  	0.408464  	0.075846  	0.021172  
8.000000  	0.431409  	0.081747  	0.026213  
9.000000  	0.432014  	0.091684  	0.027847  
10.000000 	0.400957  	0.109013  	0.022458  
11.000000 	0.397210  	0.122957  	0.019235  
12.000000 	0.405893  	0.134548  	0.017372  
13.000000 	0.423639  	0.145197  	0.014917  
14.000000 	0.477815  	0.163043  	0.003760  
15.000000 	0.518796  	0.176532  	-0.003183 
16.000000 	0.559554  	0.189019  	-0.009698 
17.000000 	0.602660  	0.201534  	-0.016380 
18.000000 	0.645092  	0.215042  	-0.023118 
19.000000 	0.683725  	0.225910  	-0.029163 
24.071429 	0.695172  	0.301361  	-0.069559 
29.142857 	0.714690  	0.389702  	-0.107402 
34.214286 	0.730052  	0.488087  	-0.138224 
39.285714 	0.734807  	0.593337  	-0.167619 
44.357143 	0.725341  	0.702049  	-0.194170 
49.428571 	0.699753  	0.810695  	-0.220255 
54.500000 	0.657358  	0.915738  	-0.243670 
59.571429 	0.598433  	1.013742  	-0.266746 
64.642857 	0.524056  	1.101484  	-0.286609 
69.714286 	0.435990  	1.176048  	-0.306174 
74.785714 	0.336571  	1.234927  	-0.321831 
79.857143 	0.228609  	1.276096  	-0.337254 
84.928571 	0.115277  	1.298080  	-0.348071 
90.000000 	0.000000  	1.300000  	-0.358753 
95.071429 	-0.080694 	1.298080  	-0.366957 
100.142857	-0.160026 	1.276096  	-0.374939 
105.214286	-0.235600 	1.234927  	-0.375224 
110.285714	-0.305193 	1.176048  	-0.375115 
115.357143	-0.366839 	1.101484  	-0.368419 
120.428571	-0.418903 	1.013742  	-0.361303 
125.500000	-0.460150 	0.915738  	-0.349639 
130.571429	-0.489827 	0.810695  	-0.337755 
135.642857	-0.507739 	0.702049  	-0.324131 
140.714286	-0.514365 	0.593337  	-0.310882 
145.785714	-0.511036 	0.488087  	-0.299915 
150.857143	-0.500283 	0.389702  	-0.291296 
155.928571	-0.486620 	0.301361  	-0.294218 
161.000000	-0.478608 	0.225910  	-0.316907 
162.357143	-0.444422 	0.208228  	-0.344517 
163.714286	-0.410235 	0.191687  	-0.372126 
165.071429	-0.376049 	0.176324  	-0.399735 
166.428571	-0.341863 	0.162176  	-0.427344 
167.785714	-0.307676 	0.149275  	-0.454953 
169.142857	-0.273490 	0.137650  	-0.482563 
170.500000	-0.239304 	0.127329  	-0.475000 
171.857143	-0.205118 	0.118336  	-0.407143 
173.214286	-0.170931 	0.110691  	-0.339286 
174.571429	-0.136745 	0.104412  	-0.271429 
175.928571	-0.102559 	0.099513  	-0.203571 
177.285714	-0.068373 	0.096005  	-0.135714 
178.642857	-0.034186 	0.093898  	-0.067857 
180.000000	0.000000  	0.093195  	0.000000  
