AeroDyn airfoil file.
 
Compatible with AeroDyn v13.0.
Generated by airfoilprep.py
1         		Number of airfoil tables in this file   
0.010000  	Reynolds number in millions.            
0.000000  	Control setting                         
5.142543  	Stall angle (deg)                       
-1.350900 	Angle of attack for zero Cn for linear Cn curve (deg)
3.776602  	Cn slope for zero lift for linear Cn curve (1/rad)
0.428010  	Cn at stall value for positive angle of attack for linear Cn curve
-0.365513 	Cn at stall value for negative angle of attack for linear Cn curve
-0.052360 	Angle of attack for minimum CD (deg)    
0.051501  	Minimum CD value                        
-180.000000	0.000000  	0.088419  	0.000000  
-178.642857	0.031451  	0.089124  	0.054286  
-177.285714	0.062901  	0.091236  	0.108571  
-175.928571	0.094352  	0.094750  	0.162857  
-174.571429	0.125802  	0.099658  	0.217143  
-173.214286	0.157253  	0.105949  	0.271429  
-171.857143	0.188703  	0.113609  	0.325714  
-170.500000	0.220154  	0.122620  	0.380000  
-169.142857	0.251604  	0.132960  	0.390247  
-167.785714	0.283055  	0.144607  	0.374805  
-166.428571	0.314505  	0.157534  	0.359363  
-165.071429	0.345956  	0.171710  	0.343921  
-163.714286	0.377406  	0.187103  	0.328478  
-162.357143	0.408857  	0.203677  	0.313036  
-161.000000	0.440307  	0.221395  	0.297594  
-155.928571	0.458113  	0.297001  	0.286832  
-150.857143	0.478435  	0.385532  	0.287600  
-145.785714	0.494073  	0.484138  	0.298015  
-140.714286	0.501169  	0.589641  	0.310392  
-135.642857	0.497540  	0.698635  	0.324277  
-130.571429	0.482059  	0.807589  	0.338408  
-125.500000	0.454373  	0.912965  	0.350337  
-120.428571	0.414754  	1.011324  	0.361987  
-115.357143	0.364008  	1.099439  	0.368766  
-110.285714	0.303405  	1.174392  	0.375095  
-105.214286	0.234604  	1.233674  	0.374621  
-100.142857	0.159587  	1.275255  	0.373740  
-95.071429	0.080585  	1.297658  	0.365056  
-90.000000	0.000000  	1.300000  	0.356145  
-84.928571	-0.080585 	1.297658  	0.343134  
-79.857143	-0.159587 	1.275255  	0.329930  
-74.785714	-0.234604 	1.233674  	0.310114  
-69.714286	-0.303405 	1.174392  	0.290033  
-64.642857	-0.364008 	1.099439  	0.265518  
-59.571429	-0.414754 	1.011324  	0.240805  
-54.500000	-0.454373 	0.912965  	0.213934  
-49.428571	-0.482059 	0.807589  	0.187020  
-44.357143	-0.497540 	0.698635  	0.159770  
-39.285714	-0.501169 	0.589641  	0.132577  
-34.214286	-0.494073 	0.484138  	0.105731  
-29.142857	-0.478435 	0.385532  	0.078416  
-24.071429	-0.458113 	0.297001  	0.048793  
-19.000000	-0.440307 	0.221395  	0.020940  
-18.928571	-0.447913 	0.220850  	0.020649  
-18.857143	-0.455519 	0.220305  	0.020358  
-18.785714	-0.463125 	0.219760  	0.020067  
-18.714286	-0.470731 	0.219214  	0.019777  
-18.642857	-0.478337 	0.218669  	0.019486  
-18.571429	-0.485943 	0.218124  	0.019195  
-18.500000	-0.493549 	0.217579  	0.018904  
-18.428571	-0.501155 	0.217034  	0.018613  
-18.357143	-0.508761 	0.216489  	0.018322  
-18.285714	-0.516367 	0.215943  	0.018032  
-18.214286	-0.523973 	0.215398  	0.017741  
-18.142857	-0.531578 	0.214853  	0.017450  
-18.000000	-0.546790 	0.213763  	0.016868  
-17.000000	-0.471850 	0.196694  	0.003748  
-16.000000	-0.393158 	0.173417  	-0.013362 
-15.000000	-0.357070 	0.162324  	-0.019046 
-14.000000	-0.321983 	0.151316  	-0.024264 
-13.000000	-0.288234 	0.140389  	-0.028983 
-12.000000	-0.256188 	0.129545  	-0.033180 
-11.000000	-0.226161 	0.118798  	-0.036831 
-10.000000	-0.198383 	0.108209  	-0.039918 
-9.000000 	-0.172954 	0.097930  	-0.042421 
-8.000000 	-0.283827 	0.100350  	-0.015954 
-7.000000 	-0.306356 	0.090263  	-0.010819 
-6.000000 	-0.312711 	0.079571  	-0.007598 
-5.000000 	-0.287769 	0.069517  	-0.008479 
-4.000000 	-0.153688 	0.054646  	-0.038035 
-3.000000 	-0.126784 	0.051501  	-0.034004 
-2.000000 	-0.035464 	0.052796  	-0.032623 
-1.000000 	0.050079  	0.054666  	-0.029057 
0.000000  	0.122406  	0.056491  	-0.023424 
1.000000  	0.184096  	0.058250  	-0.016507 
2.000000  	0.238444  	0.060065  	-0.008953 
3.000000  	0.287387  	0.062087  	-0.001151 
4.000000  	0.331290  	0.064478  	0.006673  
5.000000  	0.369225  	0.067464  	0.014332  
6.000000  	0.398651  	0.071443  	0.021546  
7.000000  	0.414662  	0.077192  	0.027693  
8.000000  	0.413390  	0.085727  	0.031552  
9.000000  	0.400572  	0.097322  	0.032039  
10.000000 	0.385044  	0.111456  	0.029533  
11.000000 	0.379883  	0.124966  	0.027104  
12.000000 	0.384297  	0.136468  	0.025850  
13.000000 	0.393908  	0.146263  	0.025280  
14.000000 	0.407763  	0.155011  	0.024618  
15.000000 	0.454952  	0.170983  	0.015400  
16.000000 	0.496751  	0.183350  	0.008071  
17.000000 	0.540363  	0.195998  	0.000816  
18.000000 	0.587375  	0.209478  	-0.006618 
19.000000 	0.629010  	0.221395  	-0.012951 
24.071429 	0.654447  	0.297001  	-0.053640 
29.142857 	0.683478  	0.385532  	-0.092043 
34.214286 	0.705819  	0.484138  	-0.123910 
39.285714 	0.715955  	0.589641  	-0.154447 
44.357143 	0.710771  	0.698635  	-0.182170 
49.428571 	0.688656  	0.807589  	-0.209433 
54.500000 	0.649104  	0.912965  	-0.233975 
59.571429 	0.592505  	1.011324  	-0.258172 
64.642857 	0.520012  	1.099439  	-0.279089 
69.714286 	0.433436  	1.174392  	-0.299703 
74.785714 	0.335149  	1.233674  	-0.316348 
79.857143 	0.227982  	1.275255  	-0.332757 
84.928571 	0.115121  	1.297658  	-0.344518 
90.000000 	0.000000  	1.300000  	-0.356145 
95.071429 	-0.080585 	1.297658  	-0.365056 
100.142857	-0.159587 	1.275255  	-0.373740 
105.214286	-0.234604 	1.233674  	-0.374621 
110.285714	-0.303405 	1.174392  	-0.375095 
115.357143	-0.364008 	1.099439  	-0.368766 
120.428571	-0.414754 	1.011324  	-0.361987 
125.500000	-0.454373 	0.912965  	-0.350337 
130.571429	-0.482059 	0.807589  	-0.338408 
135.642857	-0.497540 	0.698635  	-0.324277 
140.714286	-0.501169 	0.589641  	-0.310392 
145.785714	-0.494073 	0.484138  	-0.298015 
150.857143	-0.478435 	0.385532  	-0.287600 
155.928571	-0.458113 	0.297001  	-0.286832 
161.000000	-0.440307 	0.221395  	-0.307594 
162.357143	-0.408857 	0.203677  	-0.336608 
163.714286	-0.377406 	0.187103  	-0.365621 
165.071429	-0.345956 	0.171710  	-0.394635 
166.428571	-0.314505 	0.157534  	-0.423648 
167.785714	-0.283055 	0.144607  	-0.452662 
169.142857	-0.251604 	0.132960  	-0.481676 
170.500000	-0.220154 	0.122620  	-0.475000 
171.857143	-0.188703 	0.113609  	-0.407143 
173.214286	-0.157253 	0.105949  	-0.339286 
174.571429	-0.125802 	0.099658  	-0.271429 
175.928571	-0.094352 	0.094750  	-0.203571 
177.285714	-0.062901 	0.091236  	-0.135714 
178.642857	-0.031451 	0.089124  	-0.067857 
180.000000	0.000000  	0.088419  	0.000000  
