AeroDyn airfoil file.
 
Compatible with AeroDyn v13.0.
Generated by airfoilprep.py
1         		Number of airfoil tables in this file   
0.010000  	Reynolds number in millions.            
0.000000  	Control setting                         
0.000000  	Stall angle (deg)                       
-0.392213 	Angle of attack for zero Cn for linear Cn curve (deg)
2.351049  	Cn slope for zero lift for linear Cn curve (1/rad)
0.016094  	Cn at stall value for positive angle of attack for linear Cn curve
0.221262  	Cn at stall value for negative angle of attack for linear Cn curve
0.000000  	Angle of attack for minimum CD (deg)    
0.045278  	Minimum CD value                        
-180.000000	0.000000  	0.112671  	0.000000  
-178.642857	0.043623  	0.113368  	0.054286  
-177.285714	0.087246  	0.115460  	0.108571  
-175.928571	0.130868  	0.118940  	0.162857  
-174.571429	0.174491  	0.123800  	0.217143  
-173.214286	0.218114  	0.130031  	0.271429  
-171.857143	0.261737  	0.137616  	0.325714  
-170.500000	0.305360  	0.146538  	0.380000  
-169.142857	0.348983  	0.156778  	0.390702  
-167.785714	0.392605  	0.168310  	0.375981  
-166.428571	0.436228  	0.181108  	0.361260  
-165.071429	0.479851  	0.195143  	0.346539  
-163.714286	0.523474  	0.210381  	0.331818  
-162.357143	0.567097  	0.226788  	0.317097  
-161.000000	0.610719  	0.244325  	0.302376  
-155.928571	0.584952  	0.319143  	0.283703  
-150.857143	0.575646  	0.406713  	0.273955  
-145.785714	0.569546  	0.504192  	0.279157  
-140.714286	0.559884  	0.608412  	0.287400  
-135.642857	0.542919  	0.715974  	0.299753  
-130.571429	0.516620  	0.823362  	0.312780  
-125.500000	0.480079  	0.927047  	0.325415  
-120.428571	0.433215  	1.023606  	0.338000  
-115.357143	0.376604  	1.109824  	0.347106  
-110.285714	0.311358  	1.182800  	0.355891  
-105.214286	0.239033  	1.240038  	0.358853  
-100.142857	0.161542  	1.279526  	0.361468  
-95.071429	0.081071  	1.299801  	0.356773  
-90.000000	0.000000  	1.300000  	0.351865  
-84.928571	-0.081071 	1.299801  	0.343993  
-79.857143	-0.161542 	1.279526  	0.335925  
-74.785714	-0.239033 	1.240038  	0.321117  
-69.714286	-0.311358 	1.182800  	0.306029  
-64.642857	-0.376604 	1.109824  	0.286261  
-59.571429	-0.433215 	1.023606  	0.266273  
-54.500000	-0.480079 	0.927047  	0.243895  
-49.428571	-0.516620 	0.823362  	0.221471  
-44.357143	-0.542919 	0.715974  	0.198686  
-39.285714	-0.559884 	0.608412  	0.176034  
-34.214286	-0.569546 	0.504192  	0.154189  
-29.142857	-0.575646 	0.406713  	0.132181  
-24.071429	-0.584952 	0.319143  	0.109374  
-19.000000	-0.687411 	0.244915  	0.035266  
-18.000000	-0.651289 	0.231863  	0.030746  
-17.000000	-0.612339 	0.218070  	0.027331  
-16.000000	-0.563361 	0.202096  	0.024111  
-15.000000	-0.455664 	0.176735  	0.011001  
-14.000000	-0.363293 	0.153070  	-0.008655 
-13.000000	-0.324832 	0.141404  	-0.014640 
-12.000000	-0.287250 	0.129793  	-0.020271 
-11.000000	-0.250851 	0.118256  	-0.025552 
-10.000000	-0.215944 	0.106830  	-0.030504 
-9.000000 	-0.182743 	0.095625  	-0.035186 
-8.000000 	-0.151345 	0.084871  	-0.039633 
-7.000000 	-0.121615 	0.074991  	-0.043681 
-6.000000 	-0.093632 	0.066523  	-0.046807 
-5.000000 	-0.069860 	0.059739  	-0.048219 
-4.000000 	-0.058347 	0.054766  	-0.046681 
-3.000000 	-0.073107 	0.051643  	-0.040436 
-2.000000 	-0.118682 	0.049168  	-0.029311 
-1.000000 	-0.173204 	0.045530  	-0.017331 
0.000000  	-0.115764 	0.045278  	-0.020737 
1.000000  	-0.016921 	0.047617  	-0.026432 
2.000000  	0.076997  	0.050618  	-0.028835 
3.000000  	0.162620  	0.053784  	-0.028543 
4.000000  	0.242696  	0.056970  	-0.026560 
5.000000  	0.321694  	0.060102  	-0.023716 
6.000000  	0.403622  	0.063262  	-0.020817 
7.000000  	0.444237  	0.072337  	-0.022958 
8.000000  	0.623776  	0.103272  	-0.061938 
9.000000  	0.643185  	0.118656  	-0.063861 
10.000000 	0.630265  	0.132470  	-0.065908 
11.000000 	0.509457  	0.129685  	-0.045795 
12.000000 	0.543395  	0.142424  	-0.050544 
13.000000 	0.578808  	0.155102  	-0.055588 
14.000000 	0.615194  	0.167781  	-0.060955 
15.000000 	0.672763  	0.185657  	-0.072070 
16.000000 	0.728049  	0.201555  	-0.082546 
17.000000 	0.779206  	0.216086  	-0.091644 
18.000000 	0.827751  	0.231821  	-0.100062 
19.000000 	0.872456  	0.244325  	-0.107284 
24.071429 	0.835645  	0.319143  	-0.136853 
29.142857 	0.822352  	0.406713  	-0.164236 
34.214286 	0.813638  	0.504192  	-0.187367 
39.285714 	0.799834  	0.608412  	-0.209633 
44.357143 	0.775598  	0.715974  	-0.230195 
49.428571 	0.738028  	0.823362  	-0.250478 
54.500000 	0.685826  	0.927047  	-0.268699 
59.571429 	0.618878  	1.023606  	-0.286658 
64.642857 	0.538005  	1.109824  	-0.301788 
69.714286 	0.444797  	1.182800  	-0.316656 
74.785714 	0.341476  	1.240038  	-0.327877 
79.857143 	0.230775  	1.279526  	-0.338879 
84.928571 	0.115816  	1.299801  	-0.345437 
90.000000 	0.000000  	1.300000  	-0.351865 
95.071429 	-0.081071 	1.299801  	-0.356773 
100.142857	-0.161542 	1.279526  	-0.361468 
105.214286	-0.239033 	1.240038  	-0.358853 
110.285714	-0.311358 	1.182800  	-0.355891 
115.357143	-0.376604 	1.109824  	-0.347106 
120.428571	-0.433215 	1.023606  	-0.338000 
125.500000	-0.480079 	0.927047  	-0.325415 
130.571429	-0.516620 	0.823362  	-0.312780 
135.642857	-0.542919 	0.715974  	-0.299753 
140.714286	-0.559884 	0.608412  	-0.287400 
145.785714	-0.569546 	0.504192  	-0.279157 
150.857143	-0.575646 	0.406713  	-0.273955 
155.928571	-0.584952 	0.319143  	-0.283703 
161.000000	-0.610719 	0.244325  	-0.312376 
162.357143	-0.567097 	0.226788  	-0.340669 
163.714286	-0.523474 	0.210381  	-0.368961 
165.071429	-0.479851 	0.195143  	-0.397254 
166.428571	-0.436228 	0.181108  	-0.425546 
167.785714	-0.392605 	0.168310  	-0.453839 
169.142857	-0.348983 	0.156778  	-0.482131 
170.500000	-0.305360 	0.146538  	-0.475000 
171.857143	-0.261737 	0.137616  	-0.407143 
173.214286	-0.218114 	0.130031  	-0.339286 
174.571429	-0.174491 	0.123800  	-0.271429 
175.928571	-0.130868 	0.118940  	-0.203571 
177.285714	-0.087246 	0.115460  	-0.135714 
178.642857	-0.043623 	0.113368  	-0.067857 
180.000000	0.000000  	0.112671  	0.000000  
