AeroDyn airfoil file.
 
Compatible with AeroDyn v13.0.
Generated by airfoilprep.py
1         		Number of airfoil tables in this file   
0.010000  	Reynolds number in millions.            
0.000000  	Control setting                         
2.463534  	Stall angle (deg)                       
0.435855  	Angle of attack for zero Cn for linear Cn curve (deg)
3.284457  	Cn slope for zero lift for linear Cn curve (1/rad)
0.116236  	Cn at stall value for positive angle of attack for linear Cn curve
-0.296390 	Cn at stall value for negative angle of attack for linear Cn curve
-3.159046 	Angle of attack for minimum CD (deg)    
0.041847  	Minimum CD value                        
-181.000000	-0.000000 	0.041847  	0.000000  
-180.928571	-0.000000 	0.041847  	0.000000  
-180.857143	-0.000000 	0.041847  	0.000000  
-180.785714	-0.000000 	0.041847  	0.000000  
-180.714286	-0.000000 	0.041847  	0.000000  
-180.642857	-0.000000 	0.041847  	0.000000  
-180.571429	-0.000000 	0.041847  	0.000000  
-180.500000	-0.000000 	0.041847  	0.000000  
-180.428571	-0.000000 	0.041847  	0.000000  
-180.357143	-0.000000 	0.041847  	0.000000  
-180.285714	-0.000000 	0.041847  	0.000000  
-180.214286	-0.000000 	0.041847  	0.000000  
-180.142857	-0.000000 	0.041847  	0.000000  
-180.071429	-0.000000 	0.041847  	0.000000  
-180.000000	0.013273  	0.043655  	0.033846  
-174.500000	0.083874  	0.053597  	0.220000  
-168.000000	0.183754  	0.097128  	0.342780  
-161.500000	0.273019  	0.170572  	0.156815  
-155.000000	0.347997  	0.270114  	0.136876  
-148.500000	0.405012  	0.390587  	0.167003  
-142.000000	0.441197  	0.525727  	0.197995  
-135.500000	0.454724  	0.668503  	0.229023  
-129.000000	0.444912  	0.811478  	0.259651  
-122.500000	0.412273  	0.947186  	0.288000  
-116.000000	0.358484  	1.068525  	0.313606  
-109.500000	0.286307  	1.169114  	0.336851  
-103.000000	0.199444  	1.243630  	0.352337  
-96.500000	0.102349  	1.288078  	0.363328  
-90.000000	0.000000  	1.300000  	0.370465  
-84.857143	-0.081241 	1.293305  	0.369314  
-79.714286	-0.159866 	1.266025  	0.367730  
-74.571429	-0.233348 	1.219125  	0.358805  
-69.428571	-0.299325 	1.154200  	0.349151  
-64.285714	-0.355674 	1.073425  	0.333665  
-59.142857	-0.400584 	0.979478  	0.317398  
-54.000000	-0.432609 	0.875458  	0.297224  
-48.857143	-0.450718 	0.764784  	0.276471  
-43.714286	-0.454327 	0.651085  	0.253694  
-38.571429	-0.443313 	0.538079  	0.230705  
-33.428571	-0.418025 	0.429458  	0.207164  
-28.285714	-0.379265 	0.328767  	0.183775  
-23.142857	-0.328259 	0.239289  	0.160687  
-18.000000	-0.447198 	0.220349  	0.018056  
-17.000000	-0.428930 	0.211557  	0.017520  
-16.000000	-0.396849 	0.197735  	0.016051  
-15.000000	-0.338116 	0.178761  	0.009515  
-14.000000	-0.251846 	0.154227  	-0.008215 
-13.000000	-0.229759 	0.144277  	-0.011264 
-12.000000	-0.206683 	0.133683  	-0.014252 
-11.000000	-0.181773 	0.122539  	-0.017299 
-10.000000	-0.154403 	0.111098  	-0.020481 
-9.000000 	-0.124591 	0.099668  	-0.023779 
-8.000000 	-0.093123 	0.088523  	-0.027058 
-7.000000 	-0.061309 	0.077855  	-0.030122 
-6.000000 	-0.162992 	0.080897  	-0.005356 
-5.000000 	-0.225472 	0.078272  	0.004570  
-4.000000 	-0.283320 	0.073632  	0.011966  
-3.000000 	-0.285308 	0.064958  	0.006158  
-2.000000 	-0.175436 	0.052528  	-0.021164 
-1.000000 	0.000623  	0.042237  	-0.045552 
5.500000  	0.119820  	0.053597  	-0.089625 
12.000000 	0.262506  	0.097128  	-0.136882 
18.500000 	0.390027  	0.170572  	-0.173047 
25.000000 	0.497138  	0.270114  	-0.206810 
31.500000 	0.578588  	0.390587  	-0.238894 
38.000000 	0.630282  	0.525727  	-0.267784 
44.500000 	0.649606  	0.668503  	-0.293497 
51.000000 	0.635589  	0.811478  	-0.316864 
57.500000 	0.588961  	0.947186  	-0.335091 
64.000000 	0.512120  	1.068525  	-0.349988 
70.500000 	0.409010  	1.169114  	-0.362240 
77.000000 	0.284920  	1.243630  	-0.367723 
83.500000 	0.146213  	1.288078  	-0.370328 
90.000000 	0.000000  	1.300000  	-0.370465 
96.500000 	-0.102349 	1.288078  	-0.363328 
103.000000	-0.199444 	1.243630  	-0.352337 
109.500000	-0.286307 	1.169114  	-0.336851 
116.000000	-0.358484 	1.068525  	-0.313606 
122.500000	-0.412273 	0.947186  	-0.288000 
129.000000	-0.444912 	0.811478  	-0.259651 
135.500000	-0.454724 	0.668503  	-0.229023 
142.000000	-0.441197 	0.525727  	-0.197995 
148.500000	-0.405012 	0.390587  	-0.167003 
155.000000	-0.347997 	0.270114  	-0.136876 
161.500000	-0.273019 	0.170572  	-0.171815 
168.000000	-0.183754 	0.097128  	-0.422780 
174.500000	-0.083874 	0.053597  	-0.275000 
180.000000	2.397088  	0.043655  	-0.042308 
180.071429	-0.000000 	0.041847  	0.000000  
180.142857	-0.000000 	0.041847  	0.000000  
180.214286	-0.000000 	0.041847  	0.000000  
180.285714	-0.000000 	0.041847  	0.000000  
180.357143	-0.000000 	0.041847  	0.000000  
180.428571	-0.000000 	0.041847  	0.000000  
180.500000	-0.000000 	0.041847  	0.000000  
180.571429	-0.000000 	0.041847  	0.000000  
180.642857	-0.000000 	0.041847  	0.000000  
180.714286	-0.000000 	0.041847  	0.000000  
180.785714	-0.000000 	0.041847  	0.000000  
180.857143	-0.000000 	0.041847  	0.000000  
180.928571	-0.000000 	0.041847  	0.000000  
181.000000	-0.000000 	0.041847  	0.000000  
