AeroDyn airfoil file.
 
Compatible with AeroDyn v13.0.
Generated by airfoilprep.py
1         		Number of airfoil tables in this file   
0.010000  	Reynolds number in millions.            
0.000000  	Control setting                         
6.912620  	Stall angle (deg)                       
-0.820002 	Angle of attack for zero Cn for linear Cn curve (deg)
3.387961  	Cn slope for zero lift for linear Cn curve (1/rad)
0.457238  	Cn at stall value for positive angle of attack for linear Cn curve
-0.322713 	Cn at stall value for negative angle of attack for linear Cn curve
-0.034907 	Angle of attack for minimum CD (deg)    
0.046664  	Minimum CD value                        
-180.000000	0.000000  	0.097263  	0.000000  
-178.642857	0.035788  	0.097965  	0.054286  
-177.285714	0.071577  	0.100069  	0.108571  
-175.928571	0.107365  	0.103570  	0.162857  
-174.571429	0.143154  	0.108461  	0.217143  
-173.214286	0.178942  	0.114730  	0.271429  
-171.857143	0.214731  	0.122363  	0.325714  
-170.500000	0.250519  	0.131342  	0.380000  
-169.142857	0.286308  	0.141645  	0.390897  
-167.785714	0.322096  	0.153250  	0.376485  
-166.428571	0.357884  	0.166130  	0.362072  
-165.071429	0.393673  	0.180255  	0.347660  
-163.714286	0.429461  	0.195591  	0.333247  
-162.357143	0.465250  	0.212105  	0.318835  
-161.000000	0.501038  	0.229757  	0.304422  
-155.928571	0.503315  	0.305075  	0.290433  
-150.857143	0.513079  	0.393255  	0.286235  
-145.785714	0.520970  	0.491451  	0.294262  
-140.714286	0.522093  	0.596486  	0.304776  
-135.642857	0.513712  	0.704958  	0.317935  
-130.571429	0.494376  	0.813341  	0.331527  
-125.500000	0.463534  	0.918100  	0.343650  
-120.428571	0.421333  	1.015803  	0.355587  
-115.357143	0.368497  	1.103226  	0.363194  
-110.285714	0.306240  	1.177458  	0.370402  
-105.214286	0.236183  	1.235994  	0.371179  
-100.142857	0.160284  	1.276812  	0.371572  
-95.071429	0.080758  	1.298439  	0.364350  
-90.000000	0.000000  	1.300000  	0.356907  
-84.928571	-0.080758 	1.298439  	0.345777  
-79.857143	-0.160284 	1.276812  	0.334453  
-74.785714	-0.236183 	1.235994  	0.316458  
-69.714286	-0.306240 	1.177458  	0.298190  
-64.642857	-0.368497 	1.103226  	0.275376  
-59.571429	-0.421333 	1.015803  	0.252351  
-54.500000	-0.463534 	0.918100  	0.227038  
-49.428571	-0.494376 	0.813341  	0.201670  
-44.357143	-0.513712 	0.704958  	0.175866  
-39.285714	-0.522093 	0.596486  	0.150110  
-34.214286	-0.520970 	0.491451  	0.124653  
-29.142857	-0.513079 	0.393255  	0.098696  
-24.071429	-0.503315 	0.305075  	0.070278  
-19.000000	-0.654733 	0.235540  	0.025480  
-18.000000	-0.599785 	0.219139  	0.023298  
-17.000000	-0.514860 	0.200555  	0.013909  
-16.000000	-0.407822 	0.172599  	-0.008988 
-15.000000	-0.371078 	0.161170  	-0.014952 
-14.000000	-0.335041 	0.149810  	-0.020500 
-13.000000	-0.299973 	0.138539  	-0.025623 
-12.000000	-0.266156 	0.127347  	-0.030295 
-11.000000	-0.233810 	0.116261  	-0.034508 
-10.000000	-0.203060 	0.105357  	-0.038267 
-9.000000 	-0.173929 	0.094793  	-0.041580 
-8.000000 	-0.222240 	0.093087  	-0.026452 
-7.000000 	-0.257813 	0.086225  	-0.017555 
-6.000000 	-0.268598 	0.076655  	-0.013653 
-5.000000 	-0.251897 	0.066921  	-0.013710 
-4.000000 	-0.168028 	0.056473  	-0.027612 
-3.000000 	-0.139462 	0.047092  	-0.036207 
-2.000000 	-0.091890 	0.046664  	-0.033584 
-1.000000 	-0.008551 	0.048933  	-0.032333 
0.000000  	0.064938  	0.051728  	-0.028670 
1.000000  	0.126335  	0.054592  	-0.023150 
2.000000  	0.179617  	0.057461  	-0.016677 
3.000000  	0.228293  	0.060388  	-0.009870 
4.000000  	0.274340  	0.063438  	-0.003040 
5.000000  	0.318740  	0.066662  	0.003680  
6.000000  	0.362090  	0.070108  	0.010223  
7.000000  	0.405065  	0.073878  	0.016524  
8.000000  	0.436821  	0.079999  	0.020944  
10.000000 	0.623714  	0.132037  	-0.021842 
11.000000 	0.596526  	0.144985  	-0.020650 
12.000000 	0.442045  	0.140439  	0.000261  
13.000000 	0.463827  	0.151468  	-0.002099 
14.000000 	0.507473  	0.166028  	-0.009656 
15.000000 	0.545469  	0.178362  	-0.015634 
16.000000 	0.591554  	0.192555  	-0.023238 
17.000000 	0.630506  	0.203951  	-0.029384 
18.000000 	0.671383  	0.216205  	-0.036112 
19.000000 	0.715769  	0.229757  	-0.043461 
24.071429 	0.719022  	0.305075  	-0.082191 
29.142857 	0.732970  	0.393255  	-0.118395 
34.214286 	0.744243  	0.491451  	-0.147891 
39.285714 	0.745847  	0.596486  	-0.176023 
44.357143 	0.733874  	0.704958  	-0.201437 
49.428571 	0.706251  	0.813341  	-0.226405 
54.500000 	0.662191  	0.918100  	-0.248765 
59.571429 	0.601904  	1.015803  	-0.270794 
64.642857 	0.526424  	1.103226  	-0.289646 
69.714286 	0.437485  	1.177458  	-0.308205 
74.785714 	0.337404  	1.235994  	-0.322881 
79.857143 	0.228977  	1.276812  	-0.337326 
84.928571 	0.115369  	1.298439  	-0.347183 
90.000000 	0.000000  	1.300000  	-0.356907 
95.071429 	-0.080758 	1.298439  	-0.364350 
100.142857	-0.160284 	1.276812  	-0.371572 
105.214286	-0.236183 	1.235994  	-0.371179 
110.285714	-0.306240 	1.177458  	-0.370402 
115.357143	-0.368497 	1.103226  	-0.363194 
120.428571	-0.421333 	1.015803  	-0.355587 
125.500000	-0.463534 	0.918100  	-0.343650 
130.571429	-0.494376 	0.813341  	-0.331527 
135.642857	-0.513712 	0.704958  	-0.317935 
140.714286	-0.522093 	0.596486  	-0.304776 
145.785714	-0.520970 	0.491451  	-0.294262 
150.857143	-0.513079 	0.393255  	-0.286235 
155.928571	-0.503315 	0.305075  	-0.290433 
161.000000	-0.501038 	0.229757  	-0.314422 
162.357143	-0.465250 	0.212105  	-0.342406 
163.714286	-0.429461 	0.195591  	-0.370390 
165.071429	-0.393673 	0.180255  	-0.398374 
166.428571	-0.357884 	0.166130  	-0.426358 
167.785714	-0.322096 	0.153250  	-0.454342 
169.142857	-0.286308 	0.141645  	-0.482326 
170.500000	-0.250519 	0.131342  	-0.475000 
171.857143	-0.214731 	0.122363  	-0.407143 
173.214286	-0.178942 	0.114730  	-0.339286 
174.571429	-0.143154 	0.108461  	-0.271429 
175.928571	-0.107365 	0.103570  	-0.203571 
177.285714	-0.071577 	0.100069  	-0.135714 
178.642857	-0.035788 	0.097965  	-0.067857 
180.000000	0.000000  	0.097263  	0.000000  
