AeroDyn airfoil file.
 
Compatible with AeroDyn v13.0.
Generated by airfoilprep.py
1         		Number of airfoil tables in this file   
0.010000  	Reynolds number in millions.            
0.000000  	Control setting                         
11.155218 	Stall angle (deg)                       
-0.256654 	Angle of attack for zero Cn for linear Cn curve (deg)
3.189539  	Cn slope for zero lift for linear Cn curve (1/rad)
0.635276  	Cn at stall value for positive angle of attack for linear Cn curve
-0.306383 	Cn at stall value for negative angle of attack for linear Cn curve
-0.034907 	Angle of attack for minimum CD (deg)    
0.046308  	Minimum CD value                        
-180.000000	0.000000  	0.097459  	0.000000  
-178.642857	0.036748  	0.098161  	0.054286  
-177.285714	0.073496  	0.100265  	0.108571  
-175.928571	0.110245  	0.103766  	0.162857  
-174.571429	0.146993  	0.108657  	0.217143  
-173.214286	0.183741  	0.114925  	0.271429  
-171.857143	0.220489  	0.122557  	0.325714  
-170.500000	0.257237  	0.131535  	0.380000  
-169.142857	0.293986  	0.141838  	0.389924  
-167.785714	0.330734  	0.153442  	0.373969  
-166.428571	0.367482  	0.166321  	0.358015  
-165.071429	0.404230  	0.180444  	0.342061  
-163.714286	0.440978  	0.195780  	0.326107  
-162.357143	0.477727  	0.212292  	0.310152  
-161.000000	0.514475  	0.229942  	0.294198  
-155.928571	0.513316  	0.305254  	0.279112  
-150.857143	0.520744  	0.393427  	0.274964  
-145.785714	0.526921  	0.491613  	0.283071  
-140.714286	0.526723  	0.596638  	0.293671  
-135.642857	0.517290  	0.705098  	0.307071  
-130.571429	0.497101  	0.813468  	0.320931  
-125.500000	0.465561  	0.918214  	0.333508  
-120.428571	0.422788  	1.015902  	0.345922  
-115.357143	0.369490  	1.103310  	0.354184  
-110.285714	0.306867  	1.177526  	0.362062  
-105.214286	0.236532  	1.236046  	0.363647  
-100.142857	0.160438  	1.276847  	0.364857  
-95.071429	0.080796  	1.298457  	0.358518  
-90.000000	0.000000  	1.300000  	0.351960  
-84.928571	-0.080796 	1.298457  	0.341730  
-79.857143	-0.160438 	1.276847  	0.331305  
-74.785714	-0.236532 	1.236046  	0.314180  
-69.714286	-0.306867 	1.177526  	0.296779  
-64.642857	-0.369490 	1.103310  	0.274768  
-59.571429	-0.422788 	1.015902  	0.252539  
-54.500000	-0.465561 	0.918214  	0.227958  
-49.428571	-0.497101 	0.813468  	0.203319  
-44.357143	-0.517290 	0.705098  	0.178221  
-39.285714	-0.526723 	0.596638  	0.153191  
-34.214286	-0.526921 	0.491613  	0.128566  
-29.142857	-0.520744 	0.393427  	0.103548  
-24.071429	-0.513316 	0.305254  	0.076594  
-19.000000	-0.656064 	0.236983  	0.022954  
-18.000000	-0.611137 	0.221761  	0.020380  
-17.000000	-0.528385 	0.202385  	0.013314  
-16.000000	-0.412956 	0.174193  	-0.010683 
-15.000000	-0.376964 	0.162903  	-0.016314 
-14.000000	-0.341518 	0.151671  	-0.021547 
-13.000000	-0.306823 	0.140502  	-0.026369 
-12.000000	-0.273151 	0.129386  	-0.030769 
-11.000000	-0.240709 	0.118345  	-0.034748 
-10.000000	-0.209614 	0.107449  	-0.038320 
-9.000000 	-0.179901 	0.096853  	-0.041500 
-8.000000 	-0.152883 	0.086882  	-0.043924 
-7.000000 	-0.233708 	0.086700  	-0.022078 
-6.000000 	-0.252739 	0.078291  	-0.016231 
-5.000000 	-0.241292 	0.068759  	-0.015457 
-4.000000 	-0.185020 	0.059258  	-0.023264 
-3.000000 	-0.118474 	0.049260  	-0.038939 
-2.000000 	-0.146452 	0.046308  	-0.029614 
-1.000000 	-0.079454 	0.048036  	-0.028496 
0.000000  	-0.000534 	0.050968  	-0.026987 
1.000000  	0.069792  	0.054053  	-0.023423 
2.000000  	0.131657  	0.057077  	-0.018375 
3.000000  	0.188173  	0.060045  	-0.012520 
4.000000  	0.242124  	0.062998  	-0.006291 
5.000000  	0.296016  	0.065908  	0.000144  
6.000000  	0.355961  	0.068471  	0.006840  
7.000000  	0.405853  	0.073393  	0.011152  
8.000000  	0.662886  	0.102606  	-0.031074 
9.000000  	0.641427  	0.118371  	-0.028879 
10.000000 	0.618157  	0.132936  	-0.027795 
11.000000 	0.590939  	0.145661  	-0.028152 
12.000000 	0.442786  	0.140293  	-0.008078 
13.000000 	0.476643  	0.152907  	-0.012729 
14.000000 	0.514593  	0.165157  	-0.018560 
15.000000 	0.557886  	0.179502  	-0.025749 
16.000000 	0.605141  	0.193464  	-0.033951 
17.000000 	0.648368  	0.205599  	-0.041268 
18.000000 	0.689963  	0.217127  	-0.048386 
19.000000 	0.734964  	0.229942  	-0.056162 
24.071429 	0.733309  	0.305254  	-0.092397 
29.142857 	0.743920  	0.393427  	-0.126296 
34.214286 	0.752745  	0.491613  	-0.154254 
39.285714 	0.752461  	0.596638  	-0.181003 
44.357143 	0.738985  	0.705098  	-0.205265 
49.428571 	0.710144  	0.813468  	-0.229119 
54.500000 	0.665087  	0.918214  	-0.250454 
59.571429 	0.603983  	1.015902  	-0.271470 
64.642857 	0.527843  	1.103310  	-0.289353 
69.714286 	0.438381  	1.177526  	-0.306947 
74.785714 	0.337903  	1.236046  	-0.320688 
79.857143 	0.229197  	1.276847  	-0.334199 
84.928571 	0.115423  	1.298457  	-0.343145 
90.000000 	0.000000  	1.300000  	-0.351960 
95.071429 	-0.080796 	1.298457  	-0.358518 
100.142857	-0.160438 	1.276847  	-0.364857 
105.214286	-0.236532 	1.236046  	-0.363647 
110.285714	-0.306867 	1.177526  	-0.362062 
115.357143	-0.369490 	1.103310  	-0.354184 
120.428571	-0.422788 	1.015902  	-0.345922 
125.500000	-0.465561 	0.918214  	-0.333508 
130.571429	-0.497101 	0.813468  	-0.320931 
135.642857	-0.517290 	0.705098  	-0.307071 
140.714286	-0.526723 	0.596638  	-0.293671 
145.785714	-0.526921 	0.491613  	-0.283071 
150.857143	-0.520744 	0.393427  	-0.274964 
155.928571	-0.513316 	0.305254  	-0.279112 
161.000000	-0.514475 	0.229942  	-0.304198 
162.357143	-0.477727 	0.212292  	-0.333724 
163.714286	-0.440978 	0.195780  	-0.363249 
165.071429	-0.404230 	0.180444  	-0.392775 
166.428571	-0.367482 	0.166321  	-0.422301 
167.785714	-0.330734 	0.153442  	-0.451827 
169.142857	-0.293986 	0.141838  	-0.481352 
170.500000	-0.257237 	0.131535  	-0.475000 
171.857143	-0.220489 	0.122557  	-0.407143 
173.214286	-0.183741 	0.114925  	-0.339286 
174.571429	-0.146993 	0.108657  	-0.271429 
175.928571	-0.110245 	0.103766  	-0.203571 
177.285714	-0.073496 	0.100265  	-0.135714 
178.642857	-0.036748 	0.098161  	-0.067857 
180.000000	0.000000  	0.097459  	0.000000  
