AeroDyn airfoil file.
 
Compatible with AeroDyn v13.0.
Generated by airfoilprep.py
1         		Number of airfoil tables in this file   
0.010000  	Reynolds number in millions.            
0.000000  	Control setting                         
5.364225  	Stall angle (deg)                       
-1.374589 	Angle of attack for zero Cn for linear Cn curve (deg)
3.857654  	Cn slope for zero lift for linear Cn curve (1/rad)
0.453716  	Cn at stall value for positive angle of attack for linear Cn curve
-0.392282 	Cn at stall value for negative angle of attack for linear Cn curve
-0.069813 	Angle of attack for minimum CD (deg)    
0.057360  	Minimum CD value                        
-180.000000	0.000000  	0.086028  	0.000000  
-178.642857	0.028142  	0.086733  	0.054286  
-177.285714	0.056284  	0.088847  	0.108571  
-175.928571	0.084427  	0.092364  	0.162857  
-174.571429	0.112569  	0.097277  	0.217143  
-173.214286	0.140711  	0.103574  	0.271429  
-171.857143	0.168853  	0.111242  	0.325714  
-170.500000	0.196996  	0.120261  	0.380000  
-169.142857	0.225138  	0.130612  	0.388860  
-167.785714	0.253280  	0.142270  	0.371222  
-166.428571	0.281422  	0.155209  	0.353583  
-165.071429	0.309564  	0.169399  	0.335945  
-163.714286	0.337707  	0.184807  	0.318306  
-162.357143	0.365849  	0.201398  	0.300668  
-161.000000	0.393991  	0.219134  	0.283029  
-155.928571	0.423640  	0.294817  	0.274820  
-150.857143	0.452014  	0.383443  	0.280783  
-145.785714	0.473561  	0.482160  	0.293702  
-140.714286	0.485210  	0.587790  	0.308037  
-135.642857	0.485206  	0.696925  	0.322815  
-130.571429	0.472666  	0.806033  	0.337666  
-125.500000	0.447387  	0.911576  	0.349703  
-120.428571	0.409736  	1.010113  	0.361381  
-115.357143	0.360585  	1.098414  	0.367778  
-110.285714	0.301244  	1.173563  	0.373687  
-105.214286	0.233401  	1.233046  	0.372526  
-100.142857	0.159056  	1.274834  	0.370942  
-95.071429	0.080452  	1.297446  	0.361427  
-90.000000	0.000000  	1.300000  	0.351681  
-84.928571	-0.080452 	1.297446  	0.337708  
-79.857143	-0.159056 	1.274834  	0.323543  
-74.785714	-0.233401 	1.233046  	0.302773  
-69.714286	-0.301244 	1.173563  	0.281739  
-64.642857	-0.360585 	1.098414  	0.256301  
-59.571429	-0.409736 	1.010113  	0.230667  
-54.500000	-0.447387 	0.911576  	0.202921  
-49.428571	-0.472666 	0.806033  	0.175142  
-44.357143	-0.485206 	0.696925  	0.147099  
-39.285714	-0.485210 	0.587790  	0.119141  
-34.214286	-0.473561 	0.482160  	0.091705  
-29.142857	-0.452014 	0.383443  	0.063962  
-24.071429	-0.423640 	0.294817  	0.034705  
-19.000000	-0.563467 	0.218709  	0.014015  
-18.000000	-0.498670 	0.203666  	0.002334  
-17.000000	-0.420827 	0.181130  	-0.014831 
-16.000000	-0.385666 	0.170498  	-0.020380 
-15.000000	-0.351247 	0.160011  	-0.025443 
-14.000000	-0.317918 	0.149648  	-0.029980 
-13.000000	-0.286024 	0.139393  	-0.033967 
-12.000000	-0.255946 	0.129220  	-0.037370 
-11.000000	-0.227989 	0.119144  	-0.040164 
-10.000000	-0.202369 	0.109229  	-0.042327 
-9.000000 	-0.282762 	0.110721  	-0.020715 
-8.000000 	-0.320558 	0.102271  	-0.012703 
-7.000000 	-0.336290 	0.091624  	-0.008236 
-6.000000 	-0.329955 	0.081089  	-0.006201 
-5.000000 	-0.290501 	0.071227  	-0.009652 
-4.000000 	-0.180417 	0.057360  	-0.034098 
-3.000000 	-0.107660 	0.057414  	-0.031474 
-2.000000 	-0.021074 	0.059164  	-0.028095 
-1.000000 	0.056500  	0.061014  	-0.022888 
0.000000  	0.123793  	0.062669  	-0.016282 
1.000000  	0.183501  	0.064159  	-0.008858 
2.000000  	0.238459  	0.065609  	-0.001066 
3.000000  	0.290281  	0.067148  	0.006849  
4.000000  	0.339433  	0.068902  	0.014751  
5.000000  	0.385313  	0.071085  	0.022503  
6.000000  	0.422096  	0.074623  	0.029578  
7.000000  	0.369095  	0.090179  	0.030725  
8.000000  	0.532973  	0.118773  	-0.012392 
9.000000  	0.536453  	0.132531  	-0.010758 
10.000000 	0.497303  	0.143819  	-0.005055 
11.000000 	0.349373  	0.139980  	0.028352  
12.000000 	0.358504  	0.149333  	0.029083  
13.000000 	0.368700  	0.157602  	0.029973  
14.000000 	0.379819  	0.164813  	0.030886  
15.000000 	0.391912  	0.171073  	0.031675  
16.000000 	0.428467  	0.184070  	0.025810  
17.000000 	0.472889  	0.195105  	0.017856  
18.000000 	0.516516  	0.206656  	0.010728  
19.000000 	0.562845  	0.219134  	0.003571  
24.071429 	0.605199  	0.294817  	-0.036356 
29.142857 	0.645734  	0.383443  	-0.074473 
34.214286 	0.676516  	0.482160  	-0.107168 
39.285714 	0.693158  	0.587790  	-0.138761 
44.357143 	0.693152  	0.696925  	-0.167708 
49.428571 	0.675238  	0.806033  	-0.196223 
54.500000 	0.639124  	0.911576  	-0.221989 
59.571429 	0.585337  	1.010113  	-0.247406 
64.642857 	0.515122  	1.098414  	-0.269461 
69.714286 	0.430348  	1.173563  	-0.291206 
74.785714 	0.333429  	1.233046  	-0.308895 
79.857143 	0.227222  	1.274834  	-0.326342 
84.928571 	0.114932  	1.297446  	-0.339080 
90.000000 	0.000000  	1.300000  	-0.351681 
95.071429 	-0.080452 	1.297446  	-0.361427 
100.142857	-0.159056 	1.274834  	-0.370942 
105.214286	-0.233401 	1.233046  	-0.372526 
110.285714	-0.301244 	1.173563  	-0.373687 
115.357143	-0.360585 	1.098414  	-0.367778 
120.428571	-0.409736 	1.010113  	-0.361381 
125.500000	-0.447387 	0.911576  	-0.349703 
130.571429	-0.472666 	0.806033  	-0.337666 
135.642857	-0.485206 	0.696925  	-0.322815 
140.714286	-0.485210 	0.587790  	-0.308037 
145.785714	-0.473561 	0.482160  	-0.293702 
150.857143	-0.452014 	0.383443  	-0.280783 
155.928571	-0.423640 	0.294817  	-0.274820 
161.000000	-0.393991 	0.219134  	-0.293029 
162.357143	-0.365849 	0.201398  	-0.324239 
163.714286	-0.337707 	0.184807  	-0.355449 
165.071429	-0.309564 	0.169399  	-0.386659 
166.428571	-0.281422 	0.155209  	-0.417869 
167.785714	-0.253280 	0.142270  	-0.449079 
169.142857	-0.225138 	0.130612  	-0.480289 
170.500000	-0.196996 	0.120261  	-0.475000 
171.857143	-0.168853 	0.111242  	-0.407143 
173.214286	-0.140711 	0.103574  	-0.339286 
174.571429	-0.112569 	0.097277  	-0.271429 
175.928571	-0.084427 	0.092364  	-0.203571 
177.285714	-0.056284 	0.088847  	-0.135714 
178.642857	-0.028142 	0.086733  	-0.067857 
180.000000	0.000000  	0.086028  	0.000000  
